ELEMENTS
N  H  O  C  
END
SPECIES
N2                H2                H                 O2                O                 H2O               OH                H2O2              
HO2               CO                CO2               CH4               CH3               CH2               CH2S              CH3O              
CH2O              HCO               C2H6              C2H5              C2H4              C2H3              C2H2              C2H               
C2H5O             PC2H4OH           CH3CHO            CH2CHO            CH2CO             HCCO              CH3OCO            C3H6              
C3H5              C3H5O             C3H3              C2H3CHO           C4H6              C4H5              C4H4              C6H6              
FULVENE           C6H5              C5H6              C5H5              MCPTD             C10H8             CYC5H4O           C6H4O2            
CRESOL            RCRESOLC          RCRESOLO          C6H5C2H           C6H4C2H           C6H5C2H3          C6H5C2H2          INDENE            
INDENYL           C10H7             C10H7OH           C10H7O            C14H9             C16H10            C16H9             C6H5OH            
C6H5CHO           C6H5CO            C7H7              CH3C6H4           C6H5O             C6H5O2            OOC6H4OH          C6H4OH            
BZFUR             TETRALIN          RTETRALIN         RTETRAOO          C10H10            NO                N2O               NO2               
HNO               HNO2              HONO              NH3               N                 NH                NH2               H2NO              
HCN               HNC               HNCO              HCNO              CH3NO2            CN                NCO               H2CN              
CH2NH             CATECHOL          RCATEC            C5H5N             C5H4N             C5H5NO            C5H4NO            C5H4NO2           
BNC4H4CO          C3H3ONCO          C4H5N             PYRLNE            PYRLYL            CH2CHCN           CHCHCN            C4H4CN            
CH                C                 NCN               HNCN              C2N2              CH3CN             CH2CN             HOCN              
END
REACTIONS
H2+M<=>2H+M                              4.577e+19   -1.400 104400.00
H2/2.50/ H2O/12.00/ CO/1.90/ CO2/3.80/ CH4/2.00/ C2H6/3.00/ 
H2+O<=>H+OH                              5.080e+04    2.670   6292.00
H2+OH<=>H+H2O                            4.380e+13    0.000   6990.00
2O+M<=>O2+M                              6.165e+15   -0.500      0.00
H2/2.50/ H2O/12.00/ CO/1.90/ CO2/3.80/ CH4/2.00/ C2H6/3.00/ 
H+O2<=>O+OH                              1.140e+14    0.000  15286.00
H+OH+M<=>H2O+M                           3.500e+22   -2.000      0.00
H2/0.73/ H2O/3.65/ CH4/2.00/ C2H6/3.00/ 
O+H2O<=>2OH                              6.700e+07    1.704  14986.80
H+O+M<=>OH+M                             4.714e+18   -1.000      0.00
H2/2.50/ H2O/12.00/ CO/1.50/ CO2/2.00/ CH4/2.00/ C2H6/3.00/ 
H2O2(+M)<=>2OH(+M)                       2.000e+12    0.900  48749.00
N2/1.50/ H2/3.70/ O2/1.20/ H2O/7.65/ H2O2/7.70/ CO/2.80/ CO2/1.60/ 
     LOW  /  2.490e+24   -2.300  48749.00 /
!     FCCHECK/    0.57     1e-30   0.43     1e+30      0         0
     TROE/    0.43    1e-30     1e+30        /
H+H2O2<=>H2O+OH                          2.410e+13    0.000   3970.00
H+H2O2<=>H2+HO2                          2.150e+10    1.000   6000.00
O+H2O2<=>OH+HO2                          9.550e+06    2.000   3970.00
OH+H2O2<=>H2O+HO2                        1.740e+12    0.000    318.00
     DUPLICATE
OH+H2O2<=>H2O+HO2                        7.590e+13    0.000   7269.00
     DUPLICATE
H+HO2<=>2OH                              7.079e+13    0.000    295.00
H+HO2<=>H2+O2                            1.140e+10    1.083    553.78
O+HO2<=>O2+OH                            3.250e+13    0.000      0.00
OH+HO2<=>O2+H2O                          7.000e+12    0.000  -1092.96
     DUPLICATE
OH+HO2<=>O2+H2O                          4.500e+14    0.000  10929.60
     DUPLICATE
2HO2<=>O2+H2O2                           1.000e+14    0.000  11040.88
     DUPLICATE
2HO2<=>O2+H2O2                           1.900e+11    0.000  -1408.92
     DUPLICATE
H+O2(+M)<=>HO2(+M)                       4.650e+12    0.440      0.00
H2/1.30/ H2O/10.00/ CO/1.90/ CO2/3.80/ CH4/2.00/ C2H6/3.00/ 
     LOW  /  1.740e+19   -1.230      0.00 /
     TROE/    0.67    1e-30     1e+30     1e+30 /
O+CO(+M)<=>CO2(+M)                       1.362e+10    0.000   2384.00
H2/2.00/ H2O/12.00/ CO/1.75/ CO2/3.60/ 
     LOW  /  1.170e+24   -2.790   4191.00 /
     TROE/       1        1     1e+07     1e+07 /
OH+CO<=>H+CO2                            7.015e+04    2.053   -355.70
     DUPLICATE
OH+CO<=>H+CO2                            5.757e+12   -0.664    331.80
     DUPLICATE
HO2+CO<=>OH+CO2                          1.570e+05    2.180  17940.00
O2+CO<=>O+CO2                            1.119e+12    0.000  47700.00
H+CH3(+M)<=>CH4(+M)                      1.270e+16   -0.630    383.00
H2/2.00/ H2O/6.00/ CO/1.50/ CO2/2.00/ CH4/2.00/ C2H6/3.00/ 
     LOW  /  2.480e+33   -4.760   2440.00 /
     TROE/   0.783       74      2941      6964 /
H+CH4<=>H2+CH3                           6.140e+05    2.500   9587.00
O+CH4<=>OH+CH3                           1.020e+09    1.500   8600.00
OH+CH4<=>H2O+CH3                         5.830e+04    2.600   2190.00
HO2+CH4<=>H2O2+CH3                       1.130e+01    3.740  21010.00
HO2+CH3<=>O2+CH4                         1.160e+05    2.230  -3022.00
CH4+CH2<=>2CH3                           2.460e+06    2.000   8270.00
N2+CH2S<=>N2+CH2                         1.500e+13    0.000    600.00
H2O+CH2S<=>H2O+CH2                       3.000e+13    0.000      0.00
CO+CH2S<=>CO+CH2                         9.000e+12    0.000      0.00
CO2+CH2S<=>CO2+CH2                       7.000e+12    0.000      0.00
O2+CH2S=>H+OH+CO                         2.800e+13    0.000      0.00
O2+CH2S<=>H2O+CO                         1.200e+13    0.000      0.00
O+CH2S<=>H2+CO                           1.500e+13    0.000      0.00
O+CH2S<=>H+HCO                           1.500e+13    0.000      0.00
H2+CH2S<=>H+CH3                          7.000e+13    0.000      0.00
OH+CH2S<=>H+CH2O                         3.000e+13    0.000      0.00
CO2+CH2S<=>CO+CH2O                       1.400e+13    0.000      0.00
H+CH2(+M)<=>CH3(+M)                      2.500e+16   -0.800      0.00
H2/2.00/ H2O/6.00/ CO/1.50/ CO2/2.00/ CH4/2.00/ C2H6/3.00/ 
     LOW  /  3.200e+27   -3.140   1230.00 /
     TROE/    0.68       78      1995      5590 /
O2+CH2<=>OH+HCO                          1.060e+13    0.000   1500.00
O2+CH2=>2H+CO2                           2.640e+12    0.000   1500.00
O+CH2=>2H+CO                             5.000e+13    0.000      0.00
O2+CH3<=>O+CH3O                          7.546e+12    0.000  28320.00
O2+CH3<=>OH+CH2O                         2.641e+00    3.283   8105.00
O+CH3<=>H+CH2O                           5.540e+13    0.050   -136.00
OH+CH3<=>H2O+CH2S                        5.282e+17   -1.518   1772.00
PLOG /     0.010 4.936e+14   -0.669   -445.80 /
PLOG /     0.100 1.207e+15   -0.778   -175.60 /
PLOG /     1.000 5.282e+17   -1.518   1772.00 /
PLOG /    10.000 4.788e+23   -3.155   7003.00 /
PLOG /   100.000 8.433e+19   -1.962   8244.00 /
OH+CH3<=>H2+CH2O                         1.650e+07    0.973  -2010.00
PLOG /     0.010 3.502e+05    1.441  -3244.00 /
PLOG /     0.100 8.854e+05    1.327  -2975.00 /
PLOG /     1.000 1.650e+07    0.973  -2010.00 /
PLOG /    10.000 5.374e+09    0.287    280.00 /
PLOG /   100.000 9.494e+18   -2.199   9769.00 /
OH+CH3<=>H+CH3O                          1.230e+09    1.011  11950.00
PLOG /     0.010 1.186e+09    1.016  11940.00 /
PLOG /     0.100 1.188e+09    1.016  11940.00 /
PLOG /     1.000 1.230e+09    1.011  11950.00 /
PLOG /    10.000 1.798e+09    0.965  12060.00 /
PLOG /   100.000 5.242e+10    0.551  13070.00 /
OH+CH3<=>H2O+CH2                         4.293e+04    2.568   3997.80
HO2+CH3<=>OH+CH3O                        1.000e+12    0.269   -687.50
O2+CH3O<=>HO2+CH2O                       4.380e-19    9.500  -5501.00
H+CH3O<=>H2+CH2O                         2.000e+13    0.000      0.00
HO2+CH3O<=>H2O2+CH2O                     3.010e+11    0.000      0.00
CH3+CH3O<=>CH4+CH2O                      1.200e+13    0.000      0.00
H+HCO(+M)<=>CH2O(+M)                     1.090e+12    0.480   -260.00
H2/2.00/ H2O/6.00/ CO/1.50/ CO2/2.00/ CH4/2.00/ C2H6/3.00/ 
     LOW  /  1.350e+24   -2.570   1425.00 /
     TROE/  0.7824      271      2755      6570 /
H2+CO(+M)<=>CH2O(+M)                     4.300e+07    1.500  79600.00
H2/2.00/ H2O/6.00/ CO/1.50/ CO2/2.00/ CH4/2.00/ C2H6/3.00/ 
     LOW  /  5.070e+27   -3.420  84348.00 /
     TROE/   0.932      197      1540     10300 /
O2+CH2O<=>HO2+HCO                        8.070e+15    0.000  53420.00
O+CH2O<=>OH+HCO                          6.260e+09    1.150   2260.00
H+CH2O<=>H2+HCO                          5.740e+07    1.900   2740.00
OH+CH2O<=>H2O+HCO                        7.820e+07    1.630  -1055.00
HO2+CH2O<=>H2O2+HCO                      1.880e+04    2.700  11520.00
CH3+CH2O<=>CH4+HCO                       3.830e+01    3.360   4312.00
HCO+M<=>H+CO+M                           5.700e+11    0.660  14870.00
H2/2.00/ H2O/6.00/ CO/1.50/ CO2/2.00/ CH4/2.00/ C2H6/3.00/ 
O2+HCO<=>HO2+CO                          7.580e+12    0.000    410.00
O+HCO<=>OH+CO                            3.020e+13    0.000      0.00
H+HCO<=>H2+CO                            7.340e+13    0.000      0.00
OH+HCO<=>H2O+CO                          3.011e+13    0.000      0.00
CH3+HCO<=>CO+CH4                         2.650e+13    0.000      0.00
2HCO<=>CO+CH2O                           1.800e+13    0.000      0.00
O+HCO<=>H+CO2                            3.000e+13    0.000      0.00
HO2+HCO=>H+OH+CO2                        3.000e+13    0.000      0.00
2HCO=>H2+2CO                             3.000e+12    0.000      0.00
CH3O(+M)<=>H+CH2O(+M)                    6.800e+13    0.000  26170.00
H2/2.00/ H2O/6.00/ CO/1.50/ CO2/2.00/ CH4/2.00/ C2H6/3.00/ 
     LOW  /  1.870e+25   -3.000  24307.00 /
     TROE/     0.9     2500      1300     1e+99 /
2CH3(+M)<=>C2H6(+M)                      2.277e+15   -0.690    174.90
H2O/5.00/ CO/2.00/ CO2/3.00/ 
     LOW  /  8.050e+31   -3.750    981.60 /
     TROE/       0      570     1e+30     1e+30 /
H+C2H5(+M)<=>C2H6(+M)                    5.210e+17   -0.990   1580.00
H2/2.00/ H2O/6.00/ CO/1.50/ CO2/2.00/ CH4/2.00/ C2H6/3.00/ 
     LOW  /  1.990e+41   -7.080   6685.00 /
     TROE/   0.842      125      2219      6882 /
O2+C2H6<=>HO2+C2H5                       6.030e+13    0.000  51870.00
O+C2H6<=>OH+C2H5                         3.550e+06    2.400   5830.00
H+C2H6<=>H2+C2H5                         1.150e+08    1.900   7530.00
OH+C2H6<=>H2O+C2H5                       1.480e+07    1.900    950.00
HO2+C2H6<=>H2O2+C2H5                     3.460e+01    3.610  16920.00
CH2S+C2H6<=>CH3+C2H5                     1.200e+14    0.000      0.00
CH3+C2H6<=>CH4+C2H5                      5.550e-04    4.720   3231.00
H+C2H4(+M)<=>C2H5(+M)                    9.569e+08    1.463   1355.00
H2/2.00/ H2O/6.00/ CO/1.50/ CO2/2.00/ CH4/2.00/ C2H6/3.00/ 
     LOW  /  1.420e+39   -6.642   5769.00 /
     TROE/  -0.569      299     -9147     152.4 /
H+C2H5<=>H2+C2H4                         2.000e+12    0.000      0.00
2C2H4<=>C2H5+C2H3                        4.820e+14    0.000  71530.00
CH3+C2H5<=>CH4+C2H4                      1.180e+04    2.450  -2921.00
O+C2H5<=>H+CH3CHO                        1.100e+14    0.000      0.00
HO2+C2H5<=>OH+C2H5O                      1.100e+13    0.000      0.00
2CH3<=>H+C2H5                            3.100e+14   -0.362  13372.50
PLOG /     0.010 4.740e+12    0.105  10664.30 /
PLOG /     0.100 2.570e+13   -0.096  11406.10 /
PLOG /     1.000 3.100e+14   -0.362  13372.50 /
PLOG /    10.000 2.150e+10    0.885  13532.50 /
PLOG /   100.000 1.032e+02    3.230  11236.10 /
O2+C2H5<=>HO2+C2H4                       1.843e+07    1.130   -720.60
PLOG /     0.040 2.094e+09    0.490   -391.40 /
PLOG /     1.000 1.843e+07    1.130   -720.60 /
PLOG /    10.000 7.561e+14   -1.010   4749.00 /
O2+C2H5<=>OH+CH3CHO                      6.803e-02    3.570   2643.00
PLOG /     0.040 4.908e-06    4.760    254.30 /
PLOG /     1.000 6.803e-02    3.570   2643.00 /
PLOG /    10.000 8.265e+02    2.410   5285.00 /
H+C2H3(+M)<=>C2H4(+M)                    6.080e+12    0.270    280.00
H2/2.00/ H2O/6.00/ CO/1.50/ CO2/2.00/ CH4/2.00/ C2H6/3.00/ 
     LOW  /  1.400e+30   -3.860   3320.00 /
     TROE/   0.782    207.5      2663      6095 /
C2H4+M<=>H2+C2H2+M                       2.610e+16    0.000  67823.00
H2/2.00/ H2O/6.00/ CO/1.50/ CO2/2.00/ CH4/2.00/ C2H6/3.00/ 
O2+C2H4<=>HO2+C2H3                       4.220e+13    0.000  57623.10
H+C2H4<=>H2+C2H3                         5.070e+07    1.930  12950.00
OH+C2H4<=>H2O+C2H3                       2.230e+04    2.745   2215.50
CH3+C2H4<=>CH4+C2H3                      9.760e+02    2.947  15148.00
     DUPLICATE
CH3+C2H4<=>CH4+C2H3                      8.130e-05    4.417   8835.80
     DUPLICATE
O+C2H4<=>CH3+HCO                         7.453e+06    1.880    183.00
O+C2H4<=>H+CH2CHO                        6.098e+06    1.880    183.00
CH3+CH2S<=>H+C2H4                        2.000e+13    0.000      0.00
OH+C2H4<=>CH3+CH2O                       1.780e+05    1.680   2060.50
PLOG /     0.010 5.350e+00    2.920  -1732.70 /
PLOG /     0.025 3.190e+01    2.710  -1172.30 /
PLOG /     0.100 5.550e+02    2.360   -180.80 /
PLOG /     1.000 1.780e+05    1.680   2060.50 /
PLOG /    10.000 2.370e+09    0.560   6006.70 /
PLOG /   100.000 2.760e+13   -0.500  11455.10 /
OH+C2H4<=>H+CH3CHO                       2.380e-02    3.910   1722.70
PLOG /     0.010 2.370e-07    5.300  -2050.60 /
PLOG /     0.025 8.730e-05    4.570   -618.00 /
PLOG /     0.100 4.030e-01    3.540   1881.70 /
PLOG /     1.000 2.380e-02    3.910   1722.70 /
PLOG /    10.000 8.250e+08    1.010  10507.30 /
PLOG /   100.000 6.800e+09    0.810  13867.30 /
OH+C2H4<=>PC2H4OH                        2.560e+36   -7.752   6946.10
PLOG /     0.010 1.740e+43  -10.461   7698.70 /
PLOG /     0.025 3.250e+37   -8.629   5214.70 /
PLOG /     0.100 1.840e+35   -7.750   4908.90 /
PLOG /     1.000 2.560e+36   -7.752   6946.10 /
PLOG /    10.000 3.700e+33   -6.573   7605.90 /
PLOG /   100.000 1.120e+26   -4.101   5757.00 /
H+C2H2(+M)<=>C2H3(+M)                    1.710e+10    1.266   2709.00
H2/2.00/ H2O/6.00/ CO/1.50/ CO2/2.00/ CH4/2.00/ C2H6/3.00/ 
     LOW  /  6.350e+31   -4.664   3780.00 /
!     FCCHECK/   0.212    -10200  0.788     1e-30      0         0
     TROE/   0.788   -10200     1e-30        /
O2+C2H3<=>O+CH2CHO                       7.100e+20   -2.650   6489.00
PLOG /     0.010 7.880e+20   -2.670   6742.00 /
PLOG /     0.100 7.720e+20   -2.670   6713.00 /
PLOG /     0.316 9.870e+20   -2.700   6724.00 /
PLOG /     1.000 7.100e+20   -2.650   6489.00 /
PLOG /     3.160 4.500e+20   -2.530   6406.00 /
PLOG /    10.000 1.760e+23   -3.220   8697.00 /
PLOG /    31.600 3.140e+25   -3.770  11530.00 /
PLOG /   100.000 1.020e+26   -3.800  13910.00 /
     DUPLICATE
O2+C2H3<=>O+CH2CHO                       2.020e+10    0.580     38.40
PLOG /     0.010 1.360e+10    0.620   -277.60 /
PLOG /     0.100 1.420e+10    0.620   -247.70 /
PLOG /     0.316 1.660e+10    0.600   -162.50 /
PLOG /     1.000 2.020e+10    0.580     38.40 /
PLOG /     3.160 9.750e+09    0.670    248.00 /
PLOG /    10.000 7.340e+09    0.720    778.10 /
PLOG /    31.600 1.570e+09    0.920   1219.00 /
PLOG /   100.000 7.850e+07    1.280   1401.00 /
     DUPLICATE
O2+C2H3<=>HO2+C2H2                       2.150e+07    1.190   3367.00
PLOG /     0.010 1.080e+07    1.280   3322.00 /
PLOG /     0.100 7.750e+06    1.330   3216.00 /
PLOG /     0.316 1.210e+07    1.270   3311.00 /
PLOG /     1.000 2.150e+07    1.190   3367.00 /
PLOG /     3.160 1.130e+08    1.000   3695.00 /
PLOG /    10.000 1.310e+11    0.120   5872.00 /
PLOG /    31.600 1.190e+09    0.820   5617.00 /
PLOG /   100.000 1.060e+17   -1.450  12230.00 /
     DUPLICATE
O2+C2H3<=>HO2+C2H2                       4.600e+01    2.760   -492.80
PLOG /     0.010 4.760e+01    2.750   -796.40 /
PLOG /     0.100 5.160e+01    2.730   -768.30 /
PLOG /     0.316 5.550e+01    2.730   -658.50 /
PLOG /     1.000 4.600e+01    2.760   -492.80 /
PLOG /     3.160 3.750e+00    3.070   -601.00 /
PLOG /    10.000 5.480e+00    3.070     85.70 /
PLOG /    31.600 4.470e+08    0.000    955.00 /
PLOG /   100.000 2.020e+01    2.940   1847.00 /
     DUPLICATE
O2+C2H3<=>OH+CH2CO                       1.060e+03    2.390   6180.00
PLOG /     0.010 8.660e+02    2.410   6061.00 /
PLOG /     0.100 8.910e+02    2.410   6078.00 /
PLOG /     0.316 9.430e+02    2.400   6112.00 /
PLOG /     1.000 1.060e+03    2.390   6180.00 /
PLOG /     3.160 1.090e+03    2.380   6179.00 /
PLOG /    10.000 1.390e+03    2.360   6074.00 /
PLOG /    31.600 2.490e+06    1.420   8480.00 /
PLOG /   100.000 1.660e+10    0.360  12010.00 /
     DUPLICATE
O2+C2H3<=>OH+CH2CO                       5.260e-01    3.010   1777.00
PLOG /     0.010 1.820e-01    3.120   1331.00 /
PLOG /     0.100 2.070e-01    3.110   1383.00 /
PLOG /     0.316 2.710e-01    3.080   1496.00 /
PLOG /     1.000 5.260e-01    3.010   1777.00 /
PLOG /     3.160 1.370e+00    2.900   2225.00 /
PLOG /    10.000 4.190e-01    2.930   2052.00 /
PLOG /    31.600 1.190e-04    4.210   2043.00 /
PLOG /   100.000 1.300e-03    3.970   3414.00 /
     DUPLICATE
O2+C2H3<=>CH2O+HCO                       2.730e+35   -7.320  11820.00
PLOG /     0.010 2.490e+36   -7.600  12640.00 /
PLOG /     0.100 2.430e+36   -7.600  12610.00 /
PLOG /     0.316 1.950e+36   -7.570  12490.00 /
PLOG /     1.000 2.730e+35   -7.320  11820.00 /
PLOG /     3.160 1.430e+36   -7.470  12460.00 /
PLOG /    10.000 5.180e+35   -7.200  13430.00 /
PLOG /    31.600 3.190e+20   -2.570   5578.00 /
PLOG /   100.000 2.730e+33   -6.280  16000.00 /
     DUPLICATE
O2+C2H3<=>CH2O+HCO                       6.080e+15   -1.310    645.70
PLOG /     0.010 4.540e+15   -1.280    515.30 /
PLOG /     0.100 4.590e+15   -1.280    513.00 /
PLOG /     0.316 4.810e+15   -1.290    520.60 /
PLOG /     1.000 6.080e+15   -1.310    645.70 /
PLOG /     3.160 9.450e+15   -1.360   1066.00 /
PLOG /    10.000 2.560e+15   -1.180   1429.00 /
PLOG /    31.600 1.030e+69  -19.230  14760.00 /
PLOG /   100.000 4.210e+10    0.190    830.60 /
     DUPLICATE
O2+C2H3=>H+CO+CH2O                       6.360e+35   -7.320  11820.00
PLOG /     0.010 5.820e+36   -7.600  12640.00 /
PLOG /     0.100 5.660e+36   -7.600  12610.00 /
PLOG /     0.316 4.550e+36   -7.570  12490.00 /
PLOG /     1.000 6.360e+35   -7.320  11820.00 /
PLOG /     3.160 3.350e+36   -7.470  12460.00 /
PLOG /    10.000 1.210e+36   -7.200  13430.00 /
PLOG /    31.600 7.430e+20   -2.570   5578.00 /
PLOG /   100.000 6.360e+33   -6.280  16000.00 /
     DUPLICATE
O2+C2H3=>H+CO+CH2O                       1.420e+16   -1.310    645.70
PLOG /     0.010 1.060e+16   -1.280    515.30 /
PLOG /     0.100 1.070e+16   -1.280    513.00 /
PLOG /     0.316 1.130e+16   -1.290    520.60 /
PLOG /     1.000 1.420e+16   -1.310    645.70 /
PLOG /     3.160 2.200e+16   -1.360   1066.00 /
PLOG /    10.000 5.980e+15   -1.180   1429.00 /
PLOG /    31.600 2.390e+69  -19.230  14760.00 /
PLOG /   100.000 9.810e+10    0.190    830.60 /
     DUPLICATE
O2+C2H3<=>CO+CH3O                        1.030e+11   -0.330   -747.80
PLOG /     0.010 8.190e+18   -2.660   3201.00 /
PLOG /     0.100 4.060e+14   -1.320    885.80 /
PLOG /     0.316 4.340e+14   -1.330    900.60 /
PLOG /     1.000 1.030e+11   -0.330   -747.80 /
PLOG /     3.160 1.890e+12   -3.000  -8995.00 /
PLOG /    10.000 1.930e+24   -5.630      1.80 /
PLOG /    31.600 1.100e+18   -2.220   5178.00 /
PLOG /   100.000 5.790e+32   -6.450  16810.00 /
     DUPLICATE
O2+C2H3<=>CO+CH3O                        5.770e+21   -3.540   4772.00
PLOG /     0.010 1.290e+09    0.180  -1717.00 /
PLOG /     0.100 5.990e+11   -2.930  -9564.00 /
PLOG /     0.316 2.910e+11   -2.930 -10120.00 /
PLOG /     1.000 5.770e+21   -3.540   4772.00 /
PLOG /     3.160 4.990e+15   -1.620   1849.00 /
PLOG /    10.000 9.330e+16   -1.960   3324.00 /
PLOG /    31.600 1.020e+72  -20.690  15860.00 /
PLOG /   100.000 1.100e+09    0.310   1024.00 /
     DUPLICATE
O2+C2H3<=>CO2+CH3                        7.250e+31   -6.700  10440.00
PLOG /     0.010 2.370e+35   -7.760  12630.00 /
PLOG /     0.100 1.730e+35   -7.720  12520.00 /
PLOG /     0.316 4.470e+34   -7.550  12140.00 /
PLOG /     1.000 7.250e+31   -6.700  10440.00 /
PLOG /     3.160 3.630e+35   -7.750  12830.00 /
PLOG /    10.000 2.090e+35   -7.530  14050.00 /
PLOG /    31.600 3.840e+18   -2.440   5408.00 /
PLOG /   100.000 1.210e+32   -6.320  16190.00 /
     DUPLICATE
O2+C2H3<=>CO2+CH3                        5.320e+13   -1.140    446.70
PLOG /     0.010 6.270e+13   -1.160    406.30 /
PLOG /     0.100 6.240e+13   -1.160    401.40 /
PLOG /     0.316 6.120e+13   -1.160    397.00 /
PLOG /     1.000 5.320e+13   -1.140    446.70 /
PLOG /     3.160 1.450e+14   -1.260    987.70 /
PLOG /    10.000 5.020e+13   -1.110   1409.00 /
PLOG /    31.600 1.400e+70  -20.110  15430.00 /
PLOG /   100.000 9.210e+08    0.250    855.30 /
     DUPLICATE
H+C2H3<=>H2+C2H2                         9.635e+13    0.000      0.00
OH+C2H3<=>H2O+C2H2                       3.011e+13    0.000      0.00
CH3+C2H3<=>CH4+C2H2                      3.920e+11    0.000      0.00
2C2H3<=>C2H4+C2H2                        9.600e+11    0.000      0.00
H+C2H(+M)<=>C2H2(+M)                     1.000e+17   -1.000      0.00
H2/2.00/ H2O/6.00/ CO/1.50/ CO2/2.00/ CH4/2.00/ C2H6/3.00/ 
     LOW  /  3.750e+33   -4.800   1900.00 /
     TROE/   0.646      132      1315      5566 /
O+C2H2<=>CO+CH2                          7.395e+08    1.280   2472.00
O+C2H2<=>H+HCCO                          2.958e+09    1.280   2472.00
HO2+C2H2<=>OH+CH2CO                      6.030e+09    0.000   7949.00
HCO+C2H2<=>CO+C2H3                       1.000e+07    2.000   6000.00
CH2+C2H2<=>H+C3H3                        1.200e+13    0.000   6620.00
CH2S+C2H2<=>H+C3H3                       2.000e+13    0.000      0.00
C2H2+HCCO<=>CO+C3H3                      1.000e+11    0.000   3000.00
OH+C2H2<=>H2O+C2H                        2.632e+06    2.140  17060.00
OH+C2H2<=>H+CH2CO                        7.528e+06    1.550   2106.00
PLOG /     0.010 1.578e+03    2.560   -844.50 /
PLOG /     0.025 1.518e+04    2.280   -292.10 /
PLOG /     0.100 3.017e+05    1.920    598.10 /
PLOG /     1.000 7.528e+06    1.550   2106.00 /
PLOG /    10.000 5.101e+06    1.650   3400.00 /
PLOG /   100.000 1.457e+04    2.450   4477.00 /
OH+C2H2<=>CO+CH3                         1.277e+09    0.730   2579.00
PLOG /     0.010 4.757e+05    1.680   -329.80 /
PLOG /     0.025 4.372e+06    1.400    226.50 /
PLOG /     0.100 7.648e+07    1.050   1115.00 /
PLOG /     1.000 1.277e+09    0.730   2579.00 /
PLOG /    10.000 4.312e+08    0.920   3736.00 /
PLOG /   100.000 8.250e+05    1.770   4697.00 /
O2+C2H<=>CO+HCO                          5.000e+13    0.000   1500.00
H2+C2H<=>H+C2H2                          4.900e+05    2.500    560.00
OH+C2H<=>H+HCCO                          2.000e+13    0.000      0.00
CH3CHO(+M)<=>CH3+HCO(+M)                 2.450e+22   -1.740  86355.00

     LOW  /  1.030e+59  -11.300  95912.50 /
     TROE/  0.00249    718.1     6.089      3780 /
CH3CHO(+M)<=>CO+CH4(+M)                  2.720e+21   -1.740  86355.00

     LOW  /  1.140e+58  -11.300  95912.50 /
     TROE/  0.00249    718.1     6.089      3780 /
H+CH3CHO<=>H2+CH2CHO                     2.720e+03    3.100   5210.00
OH+CH3CHO<=>H2O+CH2CHO                   1.720e+05    2.400    815.00
CH2CHO(+M)<=>H+CH2CO(+M)                 1.430e+15   -0.150  45600.00

     LOW  /  6.000e+29   -3.800  43423.90 /
     TROE/   0.985      393   9.8e+09     5e+09 /
CH2CHO(+M)<=>CO+CH3(+M)                  2.930e+12    0.290  40300.00

     LOW  /  9.520e+33   -5.070  41300.00 /
     TROE/  7.13e-17     1150  4.99e+09  1.79e+09 /
CH2CO(+M)<=>CO+CH2(+M)                   3.000e+13    0.000  71000.00
H2/2.00/ H2O/6.00/ CO/1.50/ CO2/2.00/ CH4/2.00/ C2H6/3.00/ 
     LOW  /  3.000e+15    0.000  57000.00 /
     TROE/       1        1     1e+07     1e+07 /
O+C2H3<=>H+CH2CO                         3.000e+13    0.000      0.00
H+CH2CO<=>CO+CH3                         7.770e+08    1.450   2780.00
CH3+HCO<=>H2+CH2CO                       4.900e+08    0.750    842.00
PLOG /     0.050 6.100e+06    1.240  -1733.00 /
PLOG /     0.100 1.100e+07    1.180  -1303.00 /
PLOG /     1.000 4.900e+08    0.750    842.00 /
PLOG /    10.000 1.600e+11    0.109   4387.00 /
O+CH2CO<=>CO2+CH2                        1.750e+12    0.000   1350.00
CH2S+CH2CO<=>CO+C2H4                     2.000e+13    0.000   -526.00
CH3+CH2CO<=>CO+C2H5                      4.769e+04    2.312   9468.00
OH+HCCO=>H2+2CO                          1.000e+14    0.000      0.00
O+HCCO=>H+2CO                            8.000e+13    0.000      0.00
H+HCCO<=>CO+CH2S                         1.000e+14    0.000      0.00
O2+HCCO=>OH+2CO                          1.910e+11   -0.020   1020.00
O2+HCCO=>H+CO+CO2                        4.780e+12   -0.142   1150.00
CH3+CH2O<=>C2H5O                         3.000e+11    0.000   6336.00
H+CH3CHO<=>C2H5O                         4.610e+07    1.710   7090.00
O2+C2H5O<=>HO2+CH3CHO                    4.280e+10    0.000   1097.00
CH3+C2H3(+M)<=>C3H6(+M)                  2.500e+13    0.000      0.00

     LOW  /  4.270e+58  -11.940   9769.80 /
     TROE/   0.175     1341     60000     10140 /
CH2S+C2H4<=>C3H6                         2.130e+58  -13.500  20400.00
PLOG /     0.010 4.820e+57  -14.300  17100.00 /
PLOG /     0.100 3.840e+59  -14.400  18400.00 /
PLOG /     1.000 2.130e+58  -13.500  20400.00 /
PLOG /    10.000 8.480e+52  -11.600  20700.00 /
PLOG /   100.000 6.070e+47   -9.850  22100.00 /
     DUPLICATE
CH2S+C2H4<=>C3H6                         1.300e+40   -8.770   5863.80
PLOG /     0.010 1.150e+45  -11.100   6145.20 /
PLOG /     0.100 1.830e+45  -10.700   6638.50 /
PLOG /     1.000 1.300e+40   -8.770   5863.80 /
PLOG /    10.000 2.270e+32   -6.140   4317.90 /
PLOG /   100.000 1.280e+24   -3.490   2529.90 /
     DUPLICATE
CH2S+C2H4<=>H+C3H5                       4.440e+35   -6.550  13900.00
PLOG /     0.010 8.200e+19   -2.060   1150.00 /
PLOG /     0.100 2.270e+21   -2.440   2650.00 /
PLOG /     1.000 4.440e+35   -6.550  13900.00 /
PLOG /    10.000 1.180e+28   -4.090  14000.00 /
PLOG /   100.000 6.510e+26   -3.580  18900.00 /
     DUPLICATE
CH2S+C2H4<=>H+C3H5                       3.890e+14   -0.420   1237.60
PLOG /     0.010 1.080e+07    1.620  -3174.60 /
PLOG /     0.100 1.370e+05    2.150  -3799.20 /
PLOG /     1.000 3.890e+14   -0.420   1237.60 /
PLOG /    10.000 2.450e+10    0.670    750.93 /
PLOG /   100.000 1.810e+02    2.970   -746.03 /
     DUPLICATE
CH2S+C2H4<=>CH3+C2H3                     4.160e+24   -3.190   9760.00
PLOG /     0.010 1.770e+19   -1.940   6790.00 /
PLOG /     0.100 1.680e+19   -1.800   4310.00 /
PLOG /     1.000 4.160e+24   -3.190   9760.00 /
PLOG /    10.000 7.890e+24   -3.070  13900.00 /
PLOG /   100.000 7.360e+29   -4.280  23800.00 /
     DUPLICATE
CH2S+C2H4<=>CH3+C2H3                     4.920e+09    1.020    599.77
PLOG /     0.010 4.300e+12    0.190   -110.41 /
PLOG /     0.100 2.260e+11    0.540     47.81 /
PLOG /     1.000 4.920e+09    1.020    599.77 /
PLOG /    10.000 1.470e+08    1.330   1228.40 /
PLOG /   100.000 8.110e+10    0.550   5506.50 /
     DUPLICATE
CH3+C2H3<=>H+C3H5                        5.300e+29   -4.570  14400.00
PLOG /     0.010 4.120e+29   -4.950   8000.00 /
PLOG /     0.100 4.860e+30   -5.030  11300.00 /
PLOG /     1.000 5.300e+29   -4.570  14400.00 /
PLOG /    10.000 1.320e+30   -4.540  19300.00 /
PLOG /   100.000 5.160e+28   -4.030  23800.00 /
     DUPLICATE
CH3+C2H3<=>H+C3H5                        4.480e+10    0.600   1421.60
PLOG /     0.010 5.730e+15   -0.770   1195.90 /
PLOG /     0.100 2.060e+13   -0.074   1428.70 /
PLOG /     1.000 4.480e+10    0.600   1421.60 /
PLOG /    10.000 4.100e+06    1.710   1056.90 /
PLOG /   100.000 1.370e-01    3.910   -353.55 /
     DUPLICATE
C3H6<=>CH3+C2H3                          5.800e+75  -17.200 134000.00
PLOG /     0.010 1.880e+78  -18.700 130000.00 /
PLOG /     0.100 8.730e+76  -17.900 132000.00 /
PLOG /     1.000 5.800e+75  -17.200 134000.00 /
PLOG /    10.000 8.120e+71  -15.800 136000.00 /
PLOG /   100.000 2.150e+64  -13.400 135000.00 /
     DUPLICATE
C3H6<=>CH3+C2H3                          6.700e+54  -11.800 113840.00
PLOG /     0.010 1.690e+59  -13.600 113290.00 /
PLOG /     0.100 2.000e+60  -13.700 114890.00 /
PLOG /     1.000 6.700e+54  -11.800 113840.00 /
PLOG /    10.000 1.060e+47   -9.270 111510.00 /
PLOG /   100.000 7.290e+38   -6.700 108740.00 /
     DUPLICATE
C3H6<=>H+C3H5                            1.080e+71  -15.900 124860.00
PLOG /     0.010 9.160e+74  -17.600 120000.00 /
PLOG /     0.100 1.730e+70  -16.000 120000.00 /
PLOG /     1.000 1.080e+71  -15.900 124860.00 /
PLOG /    10.000 6.400e+65  -14.200 125000.00 /
PLOG /   100.000 8.050e+56  -11.500 122000.00 /
     DUPLICATE
C3H6<=>H+C3H5                            6.280e+42   -8.510  98004.00
PLOG /     0.010 2.980e+54  -12.300 101200.00 /
PLOG /     0.100 1.370e+43   -8.870  96365.00 /
PLOG /     1.000 6.280e+42   -8.510  98004.00 /
PLOG /    10.000 4.730e+35   -6.260  95644.00 /
PLOG /   100.000 4.340e+28   -4.060  93114.00 /
     DUPLICATE
H+C3H6<=>H2+C3H5                         3.644e+05    2.455   4361.20
O2+C3H6<=>HO2+C3H5                       1.200e+20   -1.670  46192.10
O+C3H6<=>OH+C3H5                         5.240e+11    0.700   5884.00
OH+C3H6<=>H2O+C3H5                       4.460e+06    2.072   1050.80
HO2+C3H6<=>H2O2+C3H5                     3.070e-02    4.403  13547.20
CH3+C3H6<=>CH4+C3H5                      2.210e+00    3.500   5675.00