THERMO ALL
   270.000  1000.000  3500.000
N2                000000N   2               G    200.00   3500.00 1050.00      1
 2.81166073E+00 1.67067353E-03-6.79997428E-07 1.32881379E-10-1.02767442E-14    2
-8.69811580E+02 6.64838050E+00 3.73100682E+00-1.83159730E-03 4.32324661E-06    3
-3.04378151E-09 7.46071562E-13-1.06287426E+03 2.16821198E+00                   4
H2                000000H   2               G    200.00   3500.00  700.00      1
 3.78199881E+00-1.01873260E-03 1.24226233E-06-4.19011899E-10 4.75543794E-14    2
-1.10283023E+03-5.60525910E+00 2.64204438E+00 5.49529275E-03-1.27163634E-05    3
 1.28749174E-08-4.70027750E-12-9.43236613E+02-5.12231094E-01                   4
H                 000000H   1               G    200.00   3500.00  860.00      1
 2.50031493E+00-7.73406872E-07 6.39345384E-10-2.12551804E-13 2.44479207E-17    2
 2.54736474E+04-4.48357228E-01 2.49950544E+00 2.99164057E-06-5.92759783E-09    3
 4.87810185E-12-1.45539326E-15 2.54737866E+04-4.44574018E-01                   4
O2                000000O   2               G    200.00   3500.00  700.00      1
 2.82012408E+00 2.48211357E-03-1.51202094E-06 4.48556202E-10-4.87305668E-14    2
-9.31350148E+02 7.94914552E+00 3.74403921E+00-2.79740148E-03 9.80122560E-06    3
-1.03259643E-08 3.79931247E-12-1.06069827E+03 3.82132645E+00                   4
O                 000000O   1               G    200.00   3500.00  720.00      1
 2.62549143E+00-2.08959648E-04 1.33918549E-07-3.85875908E-11 4.38918703E-15    2
 2.92061519E+04 4.48358518E+00 3.14799201E+00-3.11174063E-03 6.18137893E-06    3
-5.63808794E-09 1.94866014E-12 2.91309118E+04 2.13446550E+00                   4
H2O               000000H   2O   1          G    200.00   3500.00 1420.00      1
 2.66777075E+00 3.05768849E-03-9.00442411E-07 1.43361552E-10-1.00857817E-14    2
-2.98875645E+04 6.91191131E+00 4.06061172E+00-8.65807189E-04 3.24409528E-06    3
-1.80243079E-09 3.32483293E-13-3.02831314E+04-2.96150481E-01                   4
OH                000000H   1O   1          G    200.00   3500.00 1700.00      1
 2.49867369E+00 1.66635279E-03-6.28251516E-07 1.28346806E-10-1.05735894E-14    2
 3.88110716E+03 7.78218863E+00 3.91354631E+00-1.66275926E-03 2.30920029E-06    3
-1.02359508E-09 1.58829629E-13 3.40005047E+03 2.05474719E-01                   4
H2O2              000000H   2O   2          G    200.00   3500.00 1800.00      1
 4.76869639E+00 3.89237848E-03-1.21382349E-06 1.92615285E-10-1.22581990E-14    2
-1.80900220E+04-5.11811777E-01 3.34774224E+00 7.05005437E-03-3.84522006E-06    3
 1.16720661E-09-1.47618105E-13-1.75784785E+04 7.17868851E+00                   4
HO2               000000H   1O   2          G    200.00   3500.00  700.00      1
 3.02391889E+00 4.46390907E-03-2.23146492E-06 6.12710800E-10-6.64266237E-14    2
 3.99341609E+02 9.10699973E+00 3.61994299E+00 1.05805704E-03 5.06678942E-06    3
-6.33800762E-09 2.41597281E-12 3.15898234E+02 6.44411482E+00                   4
CO                000000O   1C   1          G    200.00   3500.00  960.00      1
 2.79255381E+00 1.87486886E-03-8.59711925E-07 1.91200070E-10-1.67855286E-14    2
-1.41723335E+04 7.41443560E+00 3.75723891E+00-2.14465241E-03 5.42079004E-06    3
-4.17025963E-09 1.11901127E-12-1.43575530E+04 2.79976799E+00                   4
CO2               000000O   2C   1          G    200.00   3500.00 1450.00      1
 4.70876468E+00 2.62914704E-03-9.30606462E-07 1.43892920E-10-7.62581413E-15    2
-4.90562639E+04-2.34976452E+00 2.31684347E+00 9.22755036E-03-7.75654093E-06    3
 3.28225360E-09-5.48722482E-13-4.83626067E+04 1.00786234E+01                   4
CH4               000000H   4C   1          G    300.00   3500.00  700.00      1
 5.05346456E-01 1.23697844E-02-4.99807911E-06 1.04392761E-09-8.62897368E-14    2
-9.58982503E+03 1.61752773E+01 5.23967310E+00-1.46835107E-02 5.29732676E-05    3
-5.41668788E-08 1.96318554E-11-1.02526308E+04-4.97649641E+00                   4
CH3               000000H   3C   1          G    300.00   3500.00 1060.00      1
 2.78805104E+00 6.15233477E-03-2.21179349E-06 3.74402648E-10-2.48151348E-14    2
 1.65862829E+04 5.77899817E+00 3.47829310E+00 3.54764774E-03 1.47408439E-06    3
-1.94375954E-09 5.21921230E-13 1.64399516E+04 2.40875956E+00                   4
CH2               000000H   2C   1          G    300.00   3500.00 1800.00      1
 2.81272972E+00 3.55431388E-03-1.28768523E-06 2.21273744E-10-1.48738147E-14    2
 4.62073492E+04 6.64284652E+00 3.76489460E+00 1.43839191E-03 4.75583077E-07    3
-4.31788591E-10 7.58292874E-14 4.58645699E+04 1.48953153E+00                   4
CH2S              000000H   2C   1          G    300.00   3500.00  970.00      1
 2.75934299E+00 3.65468306E-03-1.35589913E-06 2.74980408E-10-2.36795469E-14    2
 5.06429079E+04 6.11646381E+00 4.18185434E+00-2.21134312E-03 7.71527537E-06    3
-5.95950378E-09 1.58314628E-12 5.03669407E+04-7.03002582E-01                   4
CH3O              000000H   3O   1C   1     G    300.00   3500.00 1740.00      1
 5.72238062E+00 5.90227638E-03-1.80340720E-06 2.13335010E-10-5.61816419E-15    2
-7.86252217E+01-7.49173676E+00 8.89660986E-01 1.70119767E-02-1.13807350E-05    3
 3.88280928E-09-5.32841479E-13 1.60316121E+03 1.85001134E+01                   4
CH2O              000000H   2O   1C   1     G    300.00   3500.00  700.00      1
 1.33335655E+00 1.00905182E-02-5.12952555E-06 1.25425205E-09-1.19639106E-13    2
-1.39080170E+04 1.59916142E+01 4.32621280E+00-7.01151756E-03 3.15176939E-05    3
-3.36478617E-08 1.23454015E-11-1.43270169E+04 2.62028968E+00                   4
HCO               000000H   1O   1C   1     G    200.00   3500.00  770.00      1
 2.60049318E+00 5.29278258E-03-2.69184211E-06 7.21357799E-10-7.43521409E-14    2
 4.05725330E+03 1.07450933E+01 4.03483979E+00-2.15836864E-03 1.18233875E-05    3
-1.18459406E-08 4.00593955E-12 3.83636392E+03 4.20008770E+00                   4
C2H6              000000H   6C   2          G    300.00   3500.00 1800.00      1
 4.07959141E+00 1.57445262E-02-5.96197393E-06 1.06867182E-09-7.61012341E-14    2
-1.25948053E+04-1.43089411E+00-2.41778723E-01 2.53475709E-02-1.39645112E-05    3
 4.03257452E-09-4.87754387E-13-1.10391121E+04 2.19572625E+01                   4
C2H5              000000H   5C   2          G    300.00   3500.00 1800.00      1
 5.19791360E+00 1.11042800E-02-3.71281686E-06 5.47665572E-10-2.89412605E-14    2
 1.17176215E+04-4.91382512E+00 6.75421802E-01 2.11542617E-02-1.20878017E-05    3
 3.64951180E-09-4.59753237E-13 1.33457186E+04 1.95628439E+01                   4
C2H4              000000H   4C   2          G    300.00   3500.00 1650.00      1
 4.60402718E+00 9.50595350E-03-3.15129262E-06 4.53052075E-10-2.23949160E-14    2
 3.97229102E+03-3.77420904E+00-6.02932446E-02 2.08133970E-02-1.34307867E-05    3
 4.60638300E-09-6.51687481E-13 5.51151676E+03 2.10642172E+01                   4
C2H3              000000H   3C   2          G    300.00   3500.00 1450.00      1
 4.18728376E+00 7.47581589E-03-2.58984227E-06 4.05265796E-10-2.35022722E-14    2
 3.38403785E+04 1.51958752E+00 1.23421214E+00 1.56222204E-02-1.10171572E-05    3
 4.27989337E-09-6.91541508E-13 3.46967692E+04 1.68637048E+01                   4
C2H2              000000H   2C   2          G    300.00   3500.00  790.00      1
 4.37267451E+00 5.47212836E-03-2.03181547E-06 3.75019136E-10-2.77049085E-14    2
 2.58626598E+04-2.43835908E+00 7.70536982E-01 2.37107994E-02-3.66622035E-05    3
 2.95989753E-08-9.27579229E-12 2.64317975E+04 1.40907680E+01                   4
C2H               000000H   1C   2          G    300.00   3500.00 1710.00      1
 3.41788257E+00 4.21328989E-03-1.58936946E-06 2.68739191E-10-1.73346358E-14    2
 6.72874491E+04 5.32512366E+00 4.60873599E+00 1.42766785E-03 8.54158643E-07    3
-6.83903344E-10 1.21940589E-13 6.68801772E+04-1.05894068E+00                   4
C2H5O             000000H   5O   1C   2     G    300.00   3500.00  700.00      1
 1.68957253E+00 2.35453826E-02-1.23415274E-05 3.08911894E-09-2.98016650E-13    2
-3.10347953E+03 1.69410914E+01 3.27852951E+00 1.44656284E-02 7.11508866E-06    3
-1.54409916E-08 6.31987996E-12-3.32593351E+03 9.84203359E+00                   4
PC2H4OH           000000H   5O   1C   2     G    300.00   3500.00 1470.00      1
 7.18479679E+00 1.17471700E-02-4.06239752E-06 6.31554727E-10-3.61645076E-14    2
-6.24418450E+03-9.60110090E+00 1.82077786E+00 2.63431399E-02-1.89562444E-05    3
 7.38613379E-09-1.18490244E-12-4.66716293E+03 1.83437446E+01                   4
CH3CHO            000000H   4O   1C   2     G    300.00   3500.00 1800.00      1
 6.22195371E+00 1.06589270E-02-3.75190329E-06 6.00731629E-10-3.66603825E-14    2
-2.30621355E+04-8.31408576E+00 9.75916637E-01 2.23167871E-02-1.34667868E-05    3
 4.19883662E-09-5.36397186E-13-2.11735621E+04 2.00785613E+01                   4
CH2CHO            000000H   3O   1C   2     G    300.00   3500.00 1340.00      1
 6.47703792E+00 7.91358605E-03-2.83605892E-06 4.62112658E-10-2.83231300E-14    2
-1.16170812E+03-8.37157284E+00 7.37868283E-01 2.50454357E-02-2.20135026E-05    3
 1.00031294E-08-1.80836357E-12 3.76389339E+02 2.09962836E+01                   4
CH2CO             000000H   2O   1C   2     G    300.00   3500.00 1360.00      1
 5.69523628E+00 6.46841658E-03-2.33588415E-06 3.83408112E-10-2.36897851E-14    2
-8.05944305E+03-4.61154401E+00 2.49503978E+00 1.58807592E-02-1.27171444E-05    3
 5.47226118E-09-9.59140717E-13-7.18898960E+03 1.18115657E+01                   4
HCCO              000000H   1O   1C   2     G    300.00   3500.00 1220.00      1
 5.81420512E+00 3.89116780E-03-1.41168609E-06 2.35668534E-10-1.49424973E-14    2
 1.94026782E+04-4.94089645E+00 3.33028661E+00 1.20351629E-02-1.14247949E-05    3
 5.70731267E-09-1.13618105E-12 2.00087543E+04 7.53650387E+00                   4
CH3OCO            000000H   3O   2C   2     G    300.00   3500.00  730.00      1
 2.57527318E+00 2.11166692E-02-1.20149822E-05 3.14849389E-09-3.11411020E-13    2
-2.07588781E+04 1.60124236E+01 4.66126892E+00 9.68655559E-03 1.14715527E-05    3
-1.83003964E-08 7.03409935E-12-2.10634335E+04 6.60518521E+00                   4
C3H6              000000H   6C   3          G    298.00   3500.00 1800.00      1
 6.31755201E+00 1.65820017E-02-6.59972302E-06 1.29512916E-09-1.03784375E-13    2
-3.79456071E+02-1.05616188E+01-8.55987190E-02 3.08112255E-02-1.84574096E-05    3
 5.68686491E-09-7.13747674E-13 1.92567819E+03 2.40935688E+01                   4
C3H5              000000H   5C   3          G    298.00   3500.00 1600.00      1
 8.53877792E+00 1.04611885E-02-3.15379708E-06 3.85306883E-10-1.26413688E-14    2
 1.71766363E+04-2.28181758E+01-3.57888096E-01 3.27028536E-02-2.40053581E-05    3
 9.07345729E-09-1.37016487E-12 2.00235695E+04 2.42845603E+01                   4
C3H5O             000000H   5O   1C   3     G    300.00   3500.00 1610.00      1
 9.11079978E+00 1.37589660E-02-5.15319199E-06 9.32421983E-10-6.74695911E-14    2
 7.77376170E+03-2.10036658E+01 9.27196847E-01 3.40908988E-02-2.40959865E-05    3
 8.77622923E-09-1.28545208E-12 1.04088818E+04 2.23747992E+01                   4
C3H3              000000H   3C   3          G    300.00   3500.00  840.00      1
 5.75057760E+00 1.05635748E-02-4.84060957E-06 1.09040070E-09-9.80036150E-14    2
 4.00565408E+04-5.04125047E+00 1.75584152E+00 2.95861275E-02-3.88094537E-05    3
 2.80498008E-08-8.12163460E-12 4.07276565E+04 1.35345461E+01                   4
C2H3CHO           000000H   4O   1C   3     G    300.00   3500.00 1600.00      1
 9.22597838E+00 1.12038372E-02-3.67974366E-06 5.08180254E-10-2.25803378E-14    2
-1.23719484E+04-2.08137560E+01 8.18908044E-01 3.22215131E-02-2.33838148E-05    3
 8.71820988E-09-1.30539747E-12-9.68168587E+03 2.36968522E+01                   4
C4H6              000000H   6C   4          G    200.00   3500.00 1800.00      1
 9.30872521E+00 1.50139591E-02-5.06688177E-06 7.84148096E-10-4.70262839E-14    2
 8.60829987E+03-2.47389586E+01 4.65225109E-01 3.46661815E-02-2.14437338E-05    3
 6.84964885E-09-8.89456944E-13 1.17919599E+04 2.31239087E+01                   4
C4H5              000000H   5C   4          G    300.00   3500.00 1800.00      1
 1.90192654E+01-1.91794385E-03 4.88814513E-06-1.91833948E-09 2.24139237E-13    2
 3.48592740E+04-7.70423351E+01-2.01742307E-01 4.07954066E-02-3.07063136E-05    3
 1.12647934E-08-1.60685144E-12 4.17788367E+04 2.69857683E+01                   4
C4H4              000000H   4C   4          G    300.00   3500.00 1290.00      1
 7.65777119E+00 1.26498258E-02-4.62248952E-06 7.81217086E-10-5.07629111E-14    2
 3.13366016E+04-1.49692661E+01 7.13119719E-01 3.41836288E-02-2.96617953E-05    3
 1.37214268E-08-2.55855549E-12 3.31283217E+04 2.03030643E+01                   4
C6H6              000000H   6C   6          G    300.00   3500.00 1410.00      1
 1.15055544E+01 1.99961046E-02-7.07935462E-06 1.10673029E-09-6.24178906E-14    2
 4.11452291E+03-4.24445090E+01-6.99882110E+00 7.24907868E-02-6.29247613E-05    3
 2.75111779E-08-4.74405754E-12 9.33275680E+03 5.31863191E+01                   4
FULVENE           000000H   6C   6          G    200.00   3500.00 1560.00      1
 1.44152220E+01 1.47750067E-02-3.90939181E-06 2.82308156E-10 1.62511622E-14    2
 1.91167581E+04-5.54965184E+01-3.67012639E+00 6.11476948E-02-4.84985149E-05    3
 1.93374890E-08-3.03746371E-12 2.47593868E+04 3.97971310E+01                   4
C6H5              000000H   5C   6          G    300.00   3500.00 1390.00      1
 1.12331261E+01 1.77269650E-02-6.33615685E-06 1.00236866E-09-5.75481757E-14    2
 3.49856300E+04-3.80075864E+01-6.76261385E+00 6.95132669E-02-6.22206553E-05    3
 2.78054854E-08-4.87825263E-12 3.99884457E+04 5.47375207E+01                   4
C5H6              000000H   6C   5          G    200.00   3500.00 1630.00      1
 1.35786764E+01 1.28174257E-02-3.11961936E-06 1.29368392E-10 2.76958521E-14    2
 9.43770579E+03-5.26289052E+01-4.05866643E+00 5.60992486E-02-4.29495178E-05    3
 1.64197154E-08-2.47082363E-12 1.51874796E+04 4.10783319E+01                   4
C5H5              000000H   5C   5          G    300.00   3500.00  700.00      1
 4.01652580E+00 2.68451889E-02-1.26423017E-05 2.78092329E-09-2.35299432E-13    2
 2.91110159E+04 1.44025771E+00-2.58737429E+00 6.45817609E-02-9.35063844E-05    3
 7.97943354E-08-2.77400895E-11 3.00355619E+04 3.09448125E+01                   4
MCPTD             000000H   8C   6          G    300.00   3500.00 1800.00      1
-1.21144536E+02 2.92206055E-01-1.95445895E-04 5.59670227E-08-5.79656645E-12    2
 5.40571676E+04 6.85330263E+02 7.45334886E+00 6.43297727E-03 4.26983361E-05    3
-3.22345445E-08 6.45365122E-12 7.76192896E+03-1.06683176E+01                   4
C10H8             000000H   8C  10          G    300.00   3500.00 1370.00      1
 1.51184828E+01 3.89675576E-02-1.78248658E-05 3.92092279E-09-3.39215689E-13    2
 1.01121562E+04-6.09041102E+01-8.71832426E+00 1.08564074E-01-9.40254318E-05    3
 4.10014902E-08-7.10574258E-12 1.66434413E+04 6.15987877E+01                   4
CYC5H4O           000000H   4O   1C   5     G    300.00   3500.00 1260.00      1
 6.34459579E+00 2.39841575E-02-8.32755387E-06 8.47127652E-10 2.86249485E-14    2
 3.08659308E+03-9.73181555E+00-5.14379339E+00 6.04552343E-02-5.17455024E-05    3
 2.38195872E-08-4.52940274E-12 5.98166715E+03 4.83481227E+01                   4
C6H4O2            000000H   4O   2C   6     G    300.00   3500.00 1410.00      1
 1.74929577E+01 1.29021286E-02-2.02976642E-06-3.72417846E-10 8.59745728E-14    2
-2.22100459E+04-6.49015838E+01-5.23446578E+00 7.73770890E-02-7.06201498E-05    3
 3.20580235E-08-5.66410367E-12-1.58009124E+04 5.25540058E+01                   4
CRESOL            000000H   8O   1C   7     G    300.00   3500.00 1310.00      1
 1.22673687E+01 3.34155283E-02-1.38949871E-05 2.56768166E-09-1.71519559E-13    2
-2.17187243E+04-3.95715124E+01-4.41843936E+00 8.43645604E-02-7.22335735E-05    3
 3.22565297E-08-5.83733025E-12-1.73470426E+04 4.54334869E+01                   4
RCRESOLC          000000H   7O   1C   7     G    300.00   3500.00 1150.00      1
 1.31541709E+01 2.50657189E-02-5.32353913E-06-2.12687588E-10 1.25840459E-13    2
-3.38086418E+03-4.22339552E+01-6.42956805E+00 9.31830717E-02-9.41722601E-05    3
 5.12938173E-08-1.10712258E-11 1.12339577E+03 5.49833260E+01                   4
RCRESOLO          000000H   7O   1C   7     G    300.00   3500.00 1150.00      1
 1.27824815E+01 2.40796404E-02-4.51347916E-06-4.25076440E-10 1.44988501E-13    2
-3.97704756E+03-4.00543788E+01-6.60757189E+00 9.15233042E-02-9.24834755E-05    3
 5.05720229E-08-1.09413374E-11 4.82664707E+02 5.62014116E+01                   4
C6H5C2H           000000H   6C   8          G    200.00   3500.00 1280.00      1
 1.52608076E+01 2.33328927E-02-9.12947229E-06 1.67060897E-09-1.19620450E-13    2
 3.14643486E+04-5.61979008E+01-2.98097334E+00 8.03384582E-02-7.59328693E-05    3
 3.64640449E-08-6.91521341E-12 3.61342445E+04 3.63113150E+01                   4
C6H4C2H           000000H   5C   8          G    200.00   3500.00 1410.00      1
 1.60102852E+01 1.80276839E-02-6.10631287E-06 8.89485624E-10-4.39310920E-14    2
 6.01004863E+04-5.91795508E+01-2.59308039E+00 7.08031891E-02-6.22504674E-05    3
 2.74351852E-08-4.75061541E-12 6.53466354E+04 3.69628594E+01                   4
C6H5C2H3          000000H   8C   8          G    200.00   3500.00 1620.00      1
 2.08689853E+01 1.76153525E-02-4.02709967E-06 7.62333198E-11 4.96213073E-14    2
 7.92336685E+03-8.97908225E+01-4.75261288E+00 8.08785579E-02-6.26041417E-05    3
 2.41820119E-08-3.67040626E-12 1.62247647E+04 4.61791070E+01                   4
C6H5C2H2          000000H   7C   8          G    200.00   3500.00 1520.00      1
 1.92541493E+01 1.80154928E-02-5.00513523E-06 4.35360010E-10 9.55509219E-15    2
 3.83998804E+04-7.81182474E+01-4.29898225E+00 7.99974179E-02-6.61715087E-05    3
 2.72627168E-08-4.40283911E-12 4.55600324E+04 4.53739369E+01                   4
INDENE            000000H   8C   9          G    200.00   3500.00 1610.00      1
 2.31048443E+01 1.91297591E-02-4.53548120E-06 1.22196710E-10 5.15078704E-14    2
 8.53092089E+03-1.04304478E+02-6.87762290E+00 9.36203608E-02-7.39366630E-05    3
 2.88597461E-08-4.41084452E-12 1.81852753E+04 5.46222708E+01                   4
INDENYL           000000H   7C   9          G    200.00   3500.00 1430.00      1
 2.02650248E+01 2.20602643E-02-7.28401475E-06 9.93375838E-10-4.12199482E-14    2
 2.49669757E+04-8.59379552E+01-6.82385337E+00 9.78333502E-02-8.67662727E-05    3
 3.80480416E-08-6.51930836E-12 3.27143949E+04 5.44392228E+01                   4
C10H7             000000H   7C  10          G    200.00   3500.00 1490.00      1
 2.12397127E+01 2.27484190E-02-6.96640085E-06 8.04033892E-10-1.68765826E-14    2
 3.76445830E+04-9.11799918E+01-6.45168838E+00 9.70877508E-02-8.18046543E-05    3
 3.42887110E-08-5.63511100E-12 4.58966205E+04 5.34576808E+01                   4
C10H7OH           000000H   8O   1C  10     G    300.00   3500.00 1730.00      1
 2.61818224E+01 2.47079229E-02-8.75472975E-06 1.41213209E-09-8.61580367E-14    2
-1.58338687E+04-1.19314317E+02-3.09194614E+00 9.23929369E-02-6.74411581E-05    3
 2.40273261E-08-3.35424965E-12-5.70514482E+03 3.79602738E+01                   4
C10H7O            000000H   7O   1C  10     G    200.00   3500.00 1520.00      1
 2.51245261E+01 2.12349446E-02-5.95579175E-06 5.14900720E-10 1.27936894E-14    2
 2.27944423E+03-1.11444345E+02-6.17635896E+00 1.03605695E-01-8.72427162E-05    3
 3.61670606E-08-5.85104839E-12 1.17949133E+04 5.26703358E+01                   4
C14H9             000000H   9C  14          G    298.15   3500.00 1380.00      1
 2.51054797E+01 4.12375740E-02-1.71094086E-05 3.35330088E-09-2.55891933E-13    2
 4.20489547E+04-1.12231126E+02-1.15966330E+01 1.47620510E-01-1.32743034E-04    3
 5.92149558E-08-1.03757569E-11 5.21787378E+04 7.66564973E+01                   4
C16H10            000000H  10C  16          G    200.00   3500.00 1560.00      1
 3.81807346E+01 2.83119223E-02-6.73305412E-06 1.57165250E-10 8.21178663E-14    2
 9.09208909E+03-1.88517714E+02-1.17161985E+01 1.56252776E-01-1.29753106E-04    3
 5.27298370E-08-8.34298979E-12 2.46599322E+04 7.43946040E+01                   4
C16H9             000000H   9C  16          G    300.00   3500.00 1240.00      1
 1.61933977E+01 6.96117135E-02-3.71054121E-05 9.43826013E-09-9.32515879E-13    2
 4.61008358E+04-6.54256237E+01-1.33382684E+01 1.64875153E-01-1.52343443E-04    3
 7.13941909E-08-1.34236310E-11 5.34246890E+04 8.34001920E+01                   4
C6H5OH            000000H   6O   1C   6     G    300.00   3500.00 1430.00      1
 1.28001859E+01 2.34800709E-02-9.95091013E-06 2.04936550E-09-1.68127257E-13    2
-1.75399709E+04-4.51377556E+01-4.57275686E+00 7.20757150E-02-6.09253620E-05    3
 2.58136787E-08-4.32272747E-12-1.25713093E+04 4.48905084E+01                   4
C6H5CHO           000000H   6O   1C   7     G    200.00   3500.00 1630.00      1
 2.06104936E+01 1.34209230E-02-2.83635978E-06-5.48103783E-11 5.23167108E-14    2
-1.43315560E+04-8.70895599E+01-3.50845143E+00 7.26085180E-02-5.73034718E-05    3
 2.22221271E-08-3.36439149E-12-6.46877992E+03 4.10544422E+01                   4
C6H5CO            000000H   5O   1C   7     G    300.00   3500.00 1470.00      1
 1.31799087E+01 2.42895707E-02-1.09067387E-05 2.35371847E-09-2.00195165E-13    2
 5.86598787E+03-4.37756649E+01-1.56203256E+00 6.44036967E-02-5.18395203E-05    3
 2.09173383E-08-3.35727336E-12 1.02001186E+04 3.30251959E+01                   4
C7H7              000000H   7C   7          G    200.00   3500.00 1600.00      1
 1.77148781E+01 1.72901839E-02-4.74309316E-06 3.88421745E-10 1.27959347E-14    2
 1.68881058E+04-7.24712964E+01-3.23806381E+00 6.96725387E-02-5.38515508E-05    3
 2.08502791E-08-3.18436927E-12 2.35930472E+04 3.84624951E+01                   4
CH3C6H4           000000H   7C   7          G    200.00   3500.00 1730.00      1
 1.83842182E+01 1.52647348E-02-3.43004338E-06 5.73661648E-11 4.21798063E-14    2
 2.84624024E+04-7.44700925E+01-2.82564598E+00 6.43048832E-02-4.59504033E-05    3
 1.64428613E-08-2.32566631E-12 3.58010154E+04 3.94808224E+01                   4
C6H5O             000000H   5O   1C   6     G    100.00   3500.00 1800.00      1
 1.20320192E+01 2.29423311E-02-1.10171059E-05 2.53057377E-09-2.25735901E-13    2
 2.17286270E+02-4.10084348E+01 4.06305309E-01 4.87772509E-02-3.25462057E-05    3
 1.05043144E-08-1.33319988E-12 4.40254327E+03 2.19123540E+01                   4
C6H5O2            000000H   5O   2C   6     G    300.00   3500.00 1300.00      1
 1.17436568E+01 2.50264983E-02-1.11158434E-05 2.39771212E-09-2.04780347E-13    2
 1.03023085E+04-3.29345583E+01-2.98072562E+00 7.03322902E-02-6.33917572E-05    3
 2.92058730E-08-5.36019591E-12 1.41306479E+04 4.19652270E+01                   4
OOC6H4OH          000000H   5O   3C   6     G    100.00   3500.00 1570.00      1
 2.76569225E+01 2.91346362E-04 5.46428411E-06-2.09157763E-09 2.40972769E-13    2
-1.39658759E+04-1.18517523E+02-4.81896279E-01 7.19826044E-02-6.30305484E-05    3
 2.69932769E-08-4.39037350E-12-5.13028675E+03 2.99287472E+01                   4
C6H4OH            000000H   5O   1C   6     G    300.00   3500.00 1170.00      1
 1.35501563E+01 1.98692226E-02-8.43356665E-06 1.70584597E-09-1.35582640E-13    2
 1.32571078E+04-4.75538960E+01-6.19433347E+00 8.73717518E-02-9.49752707E-05    3
 5.10173582E-08-1.06722306E-11 1.78773184E+04 5.08018127E+01                   4
BZFUR             000000H   6O   1C   8     G    300.00   3500.00 1380.00      1
 1.64578334E+01 2.37623566E-02-8.52218598E-06 1.36123710E-09-7.97159889E-14    2
-5.90596972E+03-6.59480381E+01-8.70136947E+00 9.66875823E-02-8.77887356E-05    3
 3.96542563E-08-7.01685714E-12 1.03797027E+03 6.35339364E+01                   4
TETRALIN          000000H  12C  10          G    300.00   3500.00 1650.00      1
 2.40250678E+01 3.45031690E-02-1.26565535E-05 2.20632462E-09-1.51941205E-13    2
-9.85314331E+03-1.11161770E+02-1.00807336E+01 1.17183900E-01-8.78208542E-05    3
 3.25757390E-08-4.75336763E-12 1.40177116E+03 7.04583499E+01                   4
RTETRALIN         000000H  11C  10          G    300.00   3500.00 1800.00      1
 2.92428061E+01 2.67835937E-02-9.17249481E-06 1.42952536E-09-8.46466182E-14    2
 3.95646504E+03-1.44540610E+02-1.09331575E+01 1.16063513E-01-8.35724273E-05    3
 2.89850559E-08-3.91180364E-12 1.84198119E+04 7.29000859E+01                   4
RTETRAOO          000000H  11O   2C  10     G    300.00   3500.00 1800.00      1
 5.34619195E+01-7.89286329E-03 1.09697421E-05-3.89490432E-09 4.38586901E-13    2
-1.76924222E+04-2.71823513E+02-1.36343939E+01 1.41210055E-01-1.13282690E-04    3
 4.21245150E-08-5.95299911E-12 6.46225062E+03 9.13157315E+01                   4
C10H10            000000H  10C  10          G    300.00   3500.00 1800.00      1
 1.82592698E+01 4.15934216E-02-1.83631832E-05 3.88491135E-09-3.27420808E-13    2
 4.39687821E+03-8.23923218E+01-1.14588964E+01 1.07633791E-01-7.33968243E-05    3
 2.42677414E-08-3.15836943E-12 1.50954180E+04 7.84485932E+01                   4
NO                000000N   1O   1          G    200.00   3500.00  800.00      1
 2.84621514E+00 2.06354046E-03-1.06904715E-06 2.65706521E-10-2.54948673E-14    2
 1.00671113E+04 8.61842850E+00 4.25026596E+00-4.95671364E-03 1.20939293E-05    3
-1.07034405E-08 3.40236358E-12 9.84246312E+03 2.15799980E+00                   4
N2O               000000N   2O   1          G    200.00   3500.00 1420.00      1
 4.85543722E+00 2.58052440E-03-9.33594196E-07 1.54088463E-10-9.24862860E-15    2
 8.05595827E+03-2.39060855E+00 2.51620681E+00 9.16990584E-03-7.89420840E-06    3
 3.42198245E-09-5.84582078E-13 8.72029970E+03 9.71509320E+00                   4
NO2               000000N   1O   2          G    200.00   3500.00 1800.00      1
 4.19813794E+00 3.78881378E-03-2.08226003E-06 5.53837970E-10-5.45690377E-14    2
 2.49824368E+03 3.49647574E+00 2.86592221E+00 6.74929318E-03-4.54932620E-06    3
 1.46756618E-09-1.81475734E-13 2.97784134E+03 1.07067052E+01                   4
HNO               000000N   1H   1O   1     G    200.00   3500.00  700.00      1
 2.88552845E+00 3.71507602E-03-9.89194577E-07 1.60505677E-10-1.61198693E-14    2
 1.18465422E+04 9.10108586E+00 4.47186928E+00-5.34972870E-03 1.84353870E-05    3
-1.83390958E-08 6.59088065E-12 1.16244545E+04 2.01371639E+00                   4
HNO2              000000N   1H   1O   2     G    200.00   3500.00  700.00      1
 1.72007297E+00 1.13464166E-02-6.67663344E-06 1.82835451E-09-1.88889111E-13    2
-6.26025905E+03 1.58192354E+01 3.09881792E+00 3.46787403E-03 1.02059578E-05    3
-1.42503038E-08 5.55348886E-12-6.45328334E+03 9.65935176E+00                   4
HONO              000000N   1H   1O   2     G    200.00   3500.00 1450.00      1
 5.99816567E+00 3.29505604E-03-1.07588927E-06 1.49768833E-10-6.76019596E-15    2
-1.16909495E+04-5.24156198E+00 2.71684795E+00 1.23469670E-02-1.04399351E-05    3
 4.45507726E-09-7.49054752E-13-1.07393674E+04 1.18081173E+01                   4
NH3               000000N   1H   3          G    200.00   3500.00  700.00      1
 2.51781806E+00 5.95384021E-03-2.00551774E-06 3.21049857E-10-1.88806103E-14    2
-6.46278677E+03 7.18902506E+00 4.05091142E+00-2.80669328E-03 1.67670540E-05    3
-1.75575899E-08 6.36634788E-12-6.67741985E+03 3.39551794E-01                   4
N                 000000N   1               G    200.00   3500.00 1800.00      1
 2.42215558E+00 1.52655402E-04-9.87414150E-08 2.32518158E-11-1.22034408E-15    2
 5.61344054E+04 4.62162566E+00 2.50554288E+00-3.26497078E-05 5.56795096E-08    3
-3.39411193E-11 6.72311912E-15 5.61043859E+04 4.17031620E+00                   4
NH                000000N   1H   1          G    200.00   3500.00 1670.00      1
 2.48662839E+00 1.81565444E-03-7.12541166E-07 1.51936873E-10-1.23899449E-14    2
 4.24864648E+04 7.43461547E+00 3.66298286E+00-1.00196106E-03 1.81825120E-06    3
-8.58359483E-10 1.38852024E-13 4.20935624E+04 1.15612276E+00                   4
NH2               000000N   1H   2          G    200.00   3500.00 1280.00      1
 2.55273412E+00 3.54675597E-03-1.12718085E-06 1.61534507E-10-6.97197513E-15    2
 2.15912601E+04 8.13032012E+00 4.10678625E+00-1.30965693E-03 4.56392802E-06    3
-2.80258469E-09 5.71957556E-13 2.11934228E+04 2.49283504E-01                   4
H2NO              000000N   1H   2O   1     G    200.00   3500.00  700.00      1
 2.72801504E+00 7.40936630E-03-3.46220929E-06 8.08344165E-10-7.54853119E-14    2
 6.86495538E+03 9.84388852E+00 3.66110547E+00 2.07742096E-03 7.96338786E-06    3
-1.00731769E-08 3.81077222E-12 6.73432272E+03 5.67507654E+00                   4
HCN               000000N   1H   1C   1     G    200.00   3500.00  780.00      1
 3.49786301E+00 3.76915269E-03-1.51027204E-06 3.01080815E-10-2.43629368E-14    2
 1.43955802E+04 3.23683733E+00 2.24572677E+00 1.01903642E-02-1.38587557E-05    3
 1.08553403E-08-3.40713842E-12 1.45909135E+04 8.96656341E+00                   4
HNC               000000N   1H   1C   1     G    200.00   3500.00  700.00      1
 4.41179651E+00 2.12707775E-03-4.71968004E-07 1.02353966E-12 7.69770113E-15    2
 2.16589078E+04-1.07356914E+00 2.73172541E+00 1.17274840E-02-2.10442672E-05    3
 1.95936894E-08-6.98968297E-12 2.18941178E+04 6.43256348E+00                   4
HNCO              000000N   1H   1O   1C   1G    200.00   3500.00 1050.00      1
 4.68274059E+00 5.27517046E-03-2.30255409E-06 4.91740802E-10-4.20405692E-14    2
-1.59709573E+04 2.61731790E-01 2.23902625E+00 1.45845584E-02-1.56016797E-05    3
 8.93563010E-09-2.05249040E-12-1.54577773E+04 1.21704701E+01                   4
HCNO              000000N   1H   1O   1C   1G    200.00   3500.00  780.00      1
 4.79767988E+00 6.41431462E-03-3.21741495E-06 7.84733929E-10-7.49876219E-14    2
 1.84217969E+04-2.20789647E+00 6.69823287E-01 2.75828100E-02-4.39260599E-05    3
 3.55784476E-08-1.12268189E-11 1.90657425E+04 1.66810126E+01                   4
CH3NO2            000000N   1H   3O   2C   1G    200.00   3500.00 1800.00      1