ELEMENTS
N  AR HE H  O  C  
END
SPECIES
H2                O2                O3                H                 O                 OH                HO2               H2O               
H2O2              CO                CO2               CH4               CH3               CH2               CH2(S)            CH                
C                 CH3OH             CH3O              CH2OH             CH2O              HCOH              HCO               HOCO              
HOCHO             OCHO              HOCH2O            CH3OOH            CH3OO             CH2OOH            C2H6              C2H5              
C2H4              C2H3              C2H2              H2CC              C2H               C2                CH3CH2OH          CH3CHOH           
CH3CH2O           CH2CH2OH          CH3CHO            CH2CHOH           CC2H4O            CHCHOH            CC2H3O            CH2CHO            
CH3CO             CH2CO             CHCHO             HCCOH             HCCO              C2O               CH3CH2OOH         CH3CH2OO          
CH3CHOOH          CH2CH2OOH         CH2CHOOH          HOCH2CH2OO        CH2CHOO           OCHCHO            OCHCO             CH3C(O)OOH        
CH3C(O)OO         CH3C(O)O          NO                HCN               NH3               NH2               NH                N                 
NNH               N2H4              N2H3              N2H2              H2NN              NH2OH             H2NO              HNOH              
HNO               HON               NO2               HONO              HNO2              NO3               HONO2             N2O               
HNC               CN                HNCO              HOCN              HCNO              NCO               NCN               HNCN              
NCNO              NCNOH             HNCNH             NCCN              CH3NO             CH2NO             C2H5NO            CH3CHNO           
CH2CHNO           CHCHNO            CH3NO2            CH2NO2            C2H5NO2           CH2CH2NO2         CH3CHNO2          CH3ONO            
CH3ONO2           CH3CH2ONO         CH3CH2ONO2        CH3NH2            CH2NH2            CH3NH             CH2NH             H2CN              
HCNH              CH3CH2NH2         CH2CH2NH2         CH3CHNH2          CH3CH2NH          CH2CHNH2          CH3CHNH           CH2CHNH           
CH2CNH2           CH3CNH            CH3CHN            CHCHNH2           CH3CN             CHCNH2            CH2CNH            CH2CHN            
CH2CHN(S)         CXC2H3N           CH2CN             CHCNH             H2NCHO            H2NCO             CH3NHCH3          CH3NHCH2          
CH3NCH3           CH3NCH2           CH2NCH2           CH3NCH            AR                HE                N2                
END
REACTIONS
H+O2<=>O+OH                              1.000e+14    0.000  15286.00
O+H2<=>OH+H                              3.800e+12    0.000   7948.00
     DUPLICATE
O+H2<=>OH+H                              8.800e+14    0.000  19175.00
     DUPLICATE
OH+H2<=>H+H2O                            2.200e+08    1.510   3430.00
2OH<=>O+H2O                              2.000e+07    1.651    631.00
     DUPLICATE
2OH<=>O+H2O                              2.600e+11   -0.057   -827.00
     DUPLICATE
H2+M<=>2H+M                              4.600e+19   -1.400 104380.00
H2/2.50/ H2O/12.00/ CO/1.90/ CO2/3.80/ AR/0.00/ 
H2+AR<=>2H+AR                            5.800e+18   -1.100 104380.00
H+O+M<=>OH+M                             4.700e+18   -1.000      0.00
H2/2.50/ H2O/12.00/ CO/1.90/ CO2/3.80/ AR/0.75/ 
2O+M<=>O2+M                              1.900e+13    0.000  -1788.00
H2/2.50/ H2O/12.00/ CO/1.90/ CO2/3.80/ AR/0.00/ 
H2O+M<=>H+OH+M                           6.100e+27   -3.322 120790.00
H2/3.00/ O2/1.50/ H2O/0.00/ CO/1.90/ CO2/3.80/ N2/2.00/ 
2H2O<=>H+OH+H2O                          1.000e+26   -2.440 120180.00
H+O2(+M)<=>HO2(+M)                       4.700e+12    0.440      0.00
H2/2.00/ O2/0.78/ H2O/14.00/ CO/1.90/ CO2/3.80/ AR/0.67/ 
     LOW  /  6.366e+20   -1.720    524.80 /
!     FCCHECK/     0.5     1e-30    0.5     1e+30      0         0
     TROE/     0.5    1e-30     1e+30        /
HO2+H<=>H2+O2                            2.800e+06    2.090  -1451.00
HO2+H<=>2OH                              7.100e+13    0.000    295.00
HO2+H<=>H2O+O                            1.400e+12    0.000      0.00
HO2+O<=>O2+OH                            2.900e+10    1.000   -724.00
HO2+OH<=>H2O+O2                          1.900e+20   -2.490    584.00
     DUPLICATE
HO2+OH<=>H2O+O2                          1.200e+09    1.240  -1310.00
     DUPLICATE
2HO2<=>H2O2+O2                           1.200e+09    0.771  -1825.00
     DUPLICATE
2HO2<=>H2O2+O2                           1.300e+12    0.295   7397.00
     DUPLICATE
H2O2(+M)<=>2OH(+M)                       2.000e+12    0.900  48749.00
H2/3.70/ O2/1.20/ H2O/7.50/ H2O2/7.70/ CO/2.80/ CO2/1.60/ N2/1.50/ 
     LOW  /  2.500e+24   -2.300  48749.00 /
!     FCCHECK/    0.57     1e-30   0.43     1e+30      0         0
     TROE/    0.43    1e-30     1e+30        /
H2O2+H<=>H2O+OH                          2.400e+13    0.000   3970.00
H2O2+H<=>HO2+H2                          4.800e+13    0.000   7950.00
H2O2+O<=>HO2+OH                          9.600e+06    2.000   3970.00
H2O2+OH<=>HO2+H2O                        1.700e+12    0.000    318.00
     DUPLICATE
H2O2+OH<=>HO2+H2O                        7.600e+13    0.000   7270.00
     DUPLICATE
CO+O(+M)<=>CO2(+M)                       1.800e+10    0.000   2384.00
H2/2.50/ H2O/12.00/ CO/1.90/ CO2/3.80/ 
     LOW  /  1.400e+24   -2.790   4191.00 /
     TROE/       1    1e-30     1e+30     1e+30 /
CO+OH<=>CO2+H                            8.700e+05    1.730   -685.00
PLOG /     0.013 2.100e+05    1.900  -1064.00 /
PLOG /     0.132 2.500e+05    1.880  -1043.00 /
PLOG /     1.315 8.700e+05    1.730   -685.00 /
PLOG /    13.158 6.800e+06    1.480     48.00 /
PLOG /   131.580 2.300e+07    1.350    974.00 /
CO+OH<=>HOCO                             2.600e+20   -3.500   1309.00
PLOG /     0.013 1.700e+15   -2.680    859.00 /
PLOG /     0.132 5.900e+18   -3.350    887.00 /
PLOG /     1.316 2.600e+20   -3.500   1309.00 /
PLOG /    13.158 7.100e+20   -3.320   1763.00 /
PLOG /   131.580 1.100e+20   -2.780   2056.00 /
CO+HO2<=>CO2+OH                          1.600e+05    2.180  17943.00
CO+O2<=>CO2+O                            4.700e+12    0.000  60500.00
CO+H2O2<=>HOCO+OH                        3.600e+04    2.500  28660.00
HOCO(+M)<=>CO2+H(+M)                     8.200e+11    0.413  35335.00

     LOW  /  6.000e+26   -3.148  37116.00 /
!     FCCHECK/    0.61     1e-30   0.39     1e+30      0         0
     TROE/    0.39    1e-30     1e+30        /
HOCO+H<=>CO2+H2                          3.100e+17   -1.347    555.00
HOCO+H<=>CO+H2O                          6.000e+15   -0.525   2125.00
HOCO+O<=>CO2+OH                          9.000e+12    0.000      0.00
HOCO+OH<=>CO2+H2O                        4.600e+12    0.000    -89.00
     DUPLICATE
HOCO+OH<=>CO2+H2O                        9.500e+06    2.000    -89.00
     DUPLICATE
HOCO+HO2<=>CO2+H2O2                      4.000e+13    0.000      0.00
HOCO+O2<=>CO2+HO2                        4.000e+09    1.000      0.00
CH2O(+M)<=>HCO+H(+M)                     8.000e+15    0.000  87726.00

     LOW  /  1.300e+36   -5.500  93932.00 /
!     FCCHECK/       0         0      0         0      1         0
     TROE/       1     1.00 10000000.00 10000000.00 /
CH2O(+M)<=>CO+H2(+M)                     3.700e+13    0.000  71969.00

     LOW  /  4.400e+38   -6.100  93932.00 /
!     FCCHECK/       0         0      0         0      1         0
     TROE/       1     1.00 10000000.00 10000000.00 /
CH2O+H<=>HCO+H2                          1.400e+23   -2.355  17519.00
PLOG /     0.040 7.400e+23   -2.732  16379.00 /
PLOG /     1.000 1.400e+23   -2.355  17519.00 /
PLOG /    10.000 7.300e+23   -2.665  17634.00 /
     DUPLICATE
CH2O+H<=>HCO+H2                          1.600e+15   -0.444   5682.00
PLOG /     0.040 2.100e+10    1.057   3720.00 /
PLOG /     1.000 1.600e+15   -0.444   5682.00 /
PLOG /    10.000 4.200e+09    1.294   3591.00 /
     DUPLICATE
CH2O+H<=>H+CO+H2                         5.100e+07    2.182  11524.00
PLOG /     0.040 7.200e+08    1.903  11733.00 /
PLOG /     1.000 5.100e+07    2.182  11524.00 /
PLOG /    10.000 1.100e+09    1.812  13163.00 /
CH2O+O<=>HCO+OH                          5.600e+31   -5.189  19968.00
     DUPLICATE
CH2O+O<=>HCO+OH                          1.400e+15   -0.530   4011.00
     DUPLICATE
CH2O+O<=>H+CO+OH                         2.500e+21   -1.903  22674.00
CH2O+OH<=>HCO+H2O                        1.900e+09    1.256   -302.00
PLOG /     0.040 3.600e+09    1.167   -206.00 /
PLOG /     1.000 1.900e+09    1.256   -302.00 /
PLOG /    10.000 1.100e+09    1.330   -392.00 /
CH2O+OH<=>H+CO+H2O                       7.200e+10    0.892   9310.00
PLOG /     0.040 7.000e+10    0.911   8646.00 /
PLOG /     1.000 7.200e+10    0.892   9310.00 /
PLOG /    10.000 8.400e+10    0.879   9843.00 /
CH2O+HO2<=>HCO+H2O2                      4.400e+08    1.298  12129.00
CH2O+HO2<=>H+CO+H2O2                     2.500e+14    0.027  30120.00
CH2O+O2<=>HCO+HO2                        1.800e+16   -0.639  45400.00
     DUPLICATE
CH2O+O2<=>HCO+HO2                        6.600e+08    1.360  37324.00
     DUPLICATE
CH2O+O2<=>H+CO+HO2                       1.400e+15    0.027  56388.00
HCO(+M)<=>H+CO(+M)                       4.900e+16   -0.930  19724.00
H2/2.00/ O2/1.50/ H2O/15.00/ CO/1.50/ CO2/3.00/ CH4/5.00/ HE/1.30/ N2/1.50/ 
     LOW  /  7.400e+21   -2.360  19383.00 /
     TROE/   0.103      139     10900      4550 /
HCO+H<=>CO+H2                            1.100e+14    0.000      0.00
HCO+O<=>CO+OH                            3.000e+13    0.000      0.00
HCO+O<=>CO2+H                            3.000e+13    0.000      0.00
HCO+OH<=>CO+H2O                          1.100e+14    0.000      0.00
HCO+O2<=>CO+HO2                          6.900e+06    1.900  -1369.00
HCO+HO2<=>CO2+OH+H                       3.000e+13    0.000      0.00
2HCO<=>CO+CH2O                           2.700e+13    0.000      0.00
CH3+H(+M)<=>CH4(+M)                      2.300e+14    0.032    144.00
H2/4.00/ H2O/10.00/ CO/1.40/ CO2/4.00/ CH4/3.85/ C2H6/4.50/ AR/0.61/ HE/2.00/ 
N2/1.40/ 
     LOW  /  2.700e+35   -5.345   3380.00 /
     TROE/   0.395    163.5    4250.3 1.25368e+06 /
CH4+H<=>CH3+H2                           4.100e+03    3.156   8755.00
CH4+O<=>CH3+OH                           4.400e+05    2.500   6577.00
CH4+OH<=>CH3+H2O                         1.000e+06    2.182   2506.00
CH4+HO2<=>CH3+H2O2                       4.700e+04    2.500  21000.00
CH4+O2<=>CH3+HO2                         2.000e+05    2.745  51714.00
CH4+CH2<=>2CH3                           4.300e+12    0.000  10030.00
CH4+CH2(S)<=>2CH3                        4.300e+13    0.000      0.00
CH4+CH<=>C2H4+H                          3.000e+13    0.000   -400.00
CH3+M<=>CH+H2+M                          3.100e+15    0.000  80871.00

CH3+M<=>CH2+H+M                          2.200e+15    0.000  82659.00

CH3+H<=>CH2+H2                           1.200e+06    2.430  11941.00
CH2(S)+H2<=>CH3+H                        7.600e+13    0.000      0.00
CH3+O<=>CH2O+H                           6.900e+13    0.000      0.00
CH3+O<=>H2+CO+H                          1.500e+13    0.000      0.00
CH3+OH<=>CH2+H2O                         4.300e+04    2.568   3997.00
CH3+OH<=>CH3OH                           5.600e+30   -5.648   4214.00
PLOG /     0.001 6.900e+30   -6.638   2829.00 /
PLOG /     0.013 1.100e+32   -6.637   3364.00 /
PLOG /     0.132 1.500e+32   -6.361   3954.00 /
PLOG /     1.316 5.600e+30   -5.648   4214.00 /
PLOG /    13.158 1.400e+27   -4.333   3685.00 /
PLOG /   131.579 1.300e+22   -2.664   2451.00 /
CH3+OH<=>CH2(S)+H2O                      4.300e+15   -0.860   1888.00
PLOG /     0.001 1.100e+14   -0.458   -496.00 /
PLOG /     0.013 2.200e+14   -0.538   -220.00 /
PLOG /     0.132 1.200e+15   -0.727    600.00 /
PLOG /     1.316 4.300e+15   -0.860   1888.00 /
PLOG /    13.158 4.400e+14   -0.539   2932.00 /
PLOG /   131.579 6.100e+10    0.596   2923.00 /
CH3+OH<=>H2+CH2O                         3.600e+12   -0.532   2042.00
PLOG /     0.001 3.900e+09    0.254  -1221.00 /
PLOG /     0.013 2.000e+10    0.060   -624.00 /
PLOG /     0.132 2.800e+11   -0.250    498.00 /
PLOG /     1.316 3.600e+12   -0.532   2042.00 /
PLOG /    13.158 2.200e+12   -0.432   3415.00 /
PLOG /   131.579 2.400e+09    0.453   3791.00 /
CH3+OH<=>H+CH2OH                         5.600e+10    0.740   3971.00
PLOG /     0.001 8.400e+09    0.963   3230.00 /
PLOG /     0.013 8.400e+09    0.963   3230.00 /
PLOG /     0.132 1.000e+10    0.942   3295.00 /
PLOG /     1.316 5.600e+10    0.740   3971.00 /
PLOG /    13.158 5.500e+11    0.486   5443.00 /
PLOG /   131.579 2.500e+10    0.909   6402.00 /
CH3+OH<=>H+CH3O                          7.900e+08    1.065  11859.00
PLOG /     0.001 7.900e+08    1.065  11859.00 /
PLOG /     0.013 7.900e+08    1.065  11859.00 /
PLOG /     0.132 7.900e+08    1.065  11859.00 /
PLOG /     1.316 7.900e+08    1.065  11859.00 /
PLOG /    13.158 1.000e+09    1.034  11970.00 /
PLOG /   131.579 3.100e+09    0.922  12981.00 /
CH3+OH<=>H2+HCOH                         6.500e+11    0.112    932.00
PLOG /     0.001 1.200e+09    0.830  -2323.00 /
PLOG /     0.013 6.400e+09    0.633  -1701.00 /
PLOG /     0.132 8.000e+10    0.340   -565.00 /
PLOG /     1.316 6.500e+11    0.112    932.00 /
PLOG /    13.158 2.100e+11    0.295   2200.00 /
PLOG /   131.579 9.400e+07    1.286   2424.00 /
CH3+HO2<=>CH3O+OH                        1.000e+12    0.269   -688.00
CH3+O2<=>CH3O+O                          7.500e+12    0.000  28297.00
CH3+O2<=>CH2O+OH                         1.900e+11    0.000   9842.00
CH3+O2<=>CH3OO                           5.000e+22   -3.850   2000.00
PLOG /     0.010 6.800e+24   -3.000      0.00 /
PLOG /     1.000 5.000e+22   -3.850   2000.00 /
PLOG /    10.000 3.400e+21   -3.200   2300.00 /
PLOG /    20.000 4.100e+20   -2.940   1900.00 /
PLOG /    20.000 3.300e+29   -5.600   6850.00 /
PLOG /    50.000 2.800e+18   -2.200   1400.00 /
PLOG /    50.000 5.600e+28   -5.250   6850.00 /
PLOG /   100.000 1.100e+19   -2.300   1800.00 /
PLOG /   100.000 4.100e+30   -5.700   8750.00 /
CH2O+CH3<=>HCO+CH4                       3.500e+05    2.157   6234.00
CH2O+CH3<=>H+CO+CH4                      1.900e+11    0.887  24224.00
CH3+HCO<=>CH4+CO                         1.800e+20   -2.300   4781.00
PLOG /     0.050 2.900e+18   -1.840   2134.00 /
PLOG /     0.100 8.700e+18   -1.970   2684.00 /
PLOG /     1.000 1.800e+20   -2.300   4781.00 /
PLOG /    10.000 1.100e+21   -2.450   7417.00 /
CH3+HCO<=>CH2CO+H2                       4.900e+08    0.750    842.00
PLOG /     0.050 6.100e+06    1.240  -1733.00 /
PLOG /     0.100 1.100e+07    1.180  -1303.00 /
PLOG /     1.000 4.900e+08    0.750    842.00 /
PLOG /    10.000 1.600e+11    0.109   4387.00 /
2CH3<=>C2H5+H                            5.400e+13    0.000  16055.00
CH3+CH2<=>C2H4+H                         1.200e+15   -0.343    153.00
CH3+CH2(S)<=>C2H4+H                      2.000e+13    0.000      0.00
CH3+CH<=>C2H3+H                          3.000e+13    0.000      0.00
CH3+C<=>C2H2+H                           5.000e+13    0.000      0.00
CH2+M<=>CH+H+M                           5.600e+15    0.000  89000.00

CH2+M<=>C+H2+M                           5.800e+12    0.500  68500.00

CH2+H<=>CH+H2                            1.600e+14    0.000      0.00
CH2+O<=>CO+2H                            1.200e+14    0.000    536.00
CH2+O<=>CO+H2                            8.000e+13    0.000    536.00
CH2+OH<=>CH2O+H                          2.800e+13    0.123   -161.00
CH2+OH<=>CH+H2O                          8.600e+05    2.019   6776.00
CH2+O2<=>CO2+2H                          2.100e+09    0.993   -269.00
CH2+O2<=>CH2O+O                          2.200e+09    1.080   1196.00
CH2+CO2<=>CO+CH2O                        1.000e+11    0.000   1000.00
2CH2<=>C2H2+2H                           7.000e+13    0.002      8.00
2CH2<=>C2H2+H2                           1.800e+13    0.002      8.00
CH2+CH<=>C2H2+H                          4.000e+13    0.000      0.00
CH2+C<=>C2H+H                            5.000e+13    0.000      0.00
CH2(S)+N2<=>CH2+N2                       1.300e+13    0.000    430.00
CH2(S)+AR<=>CH2+AR                       1.500e+13    0.000    884.00
CH2(S)+H<=>CH2+H                         2.000e+14    0.000      0.00
CH2(S)+H<=>CH+H2                         3.000e+13    0.000      0.00
CH2(S)+O<=>CO+2H                         3.000e+13    0.000      0.00
CH2(S)+OH<=>CH2O+H                       3.000e+13    0.000      0.00
CH2(S)+O2<=>CH2+O2                       3.100e+13    0.000      0.00
CH2(S)+H2O<=>CH2+H2O                     3.000e+13    0.000      0.00
CH2(S)+CO2<=>CH2O+CO                     1.100e+13    0.000      0.00
CH+H<=>C+H2                              1.200e+14    0.000      0.00
CH+O<=>CO+H                              5.700e+13    0.000      0.00
CH+OH<=>HCO+H                            3.000e+13    0.000      0.00
CH+OH<=>2H+CO                            1.800e+23   -2.473  19927.00
CH+OH<=>C+H2O                            4.000e+07    2.000   3000.00
CH+O2<=>HCO+O                            9.700e+13    0.000      0.00
CH+O2<=>H+CO+O                           2.000e+23   -2.473  19927.00
CH+H2O<=>CH2O+H                          2.800e+07    1.590  -2610.00
CH+CO2<=>HCO+CO                          8.800e+06    1.750  -1040.00
CH+CO2<=>H+2CO                           5.300e+16   -0.723  18887.00
CH+CH2O<=>CH2CO+H                        9.500e+13    0.000   -517.00
C+OH<=>CO+H                              5.000e+13    0.000      0.00
C+O2<=>CO+O                              2.000e+13    0.000      0.00
CH3OH(+M)<=>CH2(S)+H2O(+M)               3.100e+18   -1.017  91712.00

     LOW  /  5.400e+23   -8.345  99596.00 /
     TROE/  0.9922      943     47310     47110 /
CH2OH+H(+M)<=>CH3OH(+M)                  4.300e+15   -0.790      0.00

     LOW  /  3.844e+37   -6.210   1333.00 /
     TROE/    0.25      210      1434     1e+30 /
CH3O+H(+M)<=>CH3OH(+M)                   2.400e+12    0.515     50.00
H2/2.00/ H2O/6.00/ CO/1.50/ CO2/2.00/ CH4/2.00/ C2H6/3.00/ 
     LOW  /  4.660e+41   -7.440  14080.00 /
     TROE/     0.7      100     90000     10000 /
CH3OH+H<=>CH2OH+H2                       6.600e+04    2.728   4449.00
CH3OH+H<=>CH3O+H2                        4.100e+04    2.658   9221.00
CH3OH+O<=>CH2OH+OH                       2.100e+13    0.000   5305.00
CH3OH+O<=>CH3O+OH                        3.700e+12    0.000   5305.00
CH3OH+OH<=>CH2OH+H2O                     1.500e+08    1.443    113.00
CH3OH+OH<=>CH3O+H2O                      2.700e+07    1.443    113.00
CH3OH+HO2<=>CH2OH+H2O2                   3.500e-04    4.850  10346.00
CH3OH+HO2<=>CH3O+H2O2                    1.500e-03    4.610  15928.00
CH3OH+O2<=>CH2OH+HO2                     3.600e+05    2.270  42760.00
CH3O+HO2<=>CH3OH+O2                      1.400e+11    0.000      0.00
CH3OH+CH3<=>CH3O+CH4                     1.300e-02    4.161   6002.00
CH3OH+CH3<=>CH2OH+CH4                    7.400e-01    3.781   7183.00
CH2OH(+M)<=>CH2O+H(+M)                   7.400e+10    0.811  39559.00
H2/2.00/ H2O/6.00/ CO/1.50/ CO2/2.00/ CH4/2.00/ CH3OH/3.00/ CH2O/2.50/ C2H6/3.00/ 
AR/0.85/ HE/0.67/ 
     LOW  /  3.500e+21   -1.990  23983.00 /
     TROE/   0.844      900         1      3315 /
CH2OH+H<=>CH2O+H2                        4.000e+06    1.860    147.00
CH2OH+O<=>CH2O+OH                        6.600e+13    0.000   -693.00
CH2OH+OH<=>CH2O+H2O                      2.400e+13    0.000      0.00
CH2OH+HO2<=>CH2O+H2O2                    1.200e+13    0.000      0.00
CH2OH+O2<=>CH2O+HO2                      7.200e+13    0.000   3736.00
     DUPLICATE
CH2OH+O2<=>CH2O+HO2                      2.900e+16   -1.500      0.00
     DUPLICATE
CH2OH+CH3<=>C2H4+H2O                     7.200e+29   -5.034   9245.00
PLOG /     0.001 6.300e+24   -3.713   2798.00 /
PLOG /     0.010 1.200e+25   -3.787   3001.00 /
PLOG /     0.100 3.200e+27   -4.450   5345.00 /
PLOG /     1.000 7.200e+29   -5.034   9245.00 /
PLOG /    10.000 1.700e+27   -4.184  11152.00 /
PLOG /   100.000 3.900e+17   -1.369   8978.00 /
CH2OH+HCO<=>CH3OH+CO                     1.000e+13    0.000      0.00
CH2OH+HCO<=>2CH2O                        1.500e+13    0.000      0.00
CH2OH+CH2O<=>CH3OH+HCO                   5.500e+03    2.810   5862.00
CH2OH+CH2O<=>CH3OH+H+CO                  3.300e+13    0.337  25789.00
2CH2OH<=>CH3OH+CH2O                      4.800e+12    0.000      0.00
CH2OH+CH3O<=>CH3OH+CH2O                  2.400e+12    0.000      0.00
CH3O(+M)<=>CH2O+H(+M)                    1.100e+10    1.210  24069.00
H2/2.00/ H2O/6.00/ CO/1.50/ CO2/2.00/ CH4/2.00/ CH3OH/3.00/ CH2O/2.50/ C2H6/3.00/ 
AR/0.85/ HE/0.67/ 
     LOW  /  6.000e+16   -0.547  18012.00 /
     TROE/   0.341       28      1000      2339 /
CH3O+H<=>CH2O+H2                         7.600e+08    1.500   -519.00
CH3O+O<=>CH2O+OH                         3.800e+12    0.000      0.00
CH3O+OH<=>CH2O+H2O                       1.800e+13    0.000      0.00
CH3O+HO2<=>CH2O+H2O2                     3.000e+11    0.000      0.00
CH3O+O2<=>CH2O+HO2                       4.800e-01    3.567  -1055.00
CH3O+CO<=>CH3+CO2                        9.500e+25   -4.930   9080.00
CH3O+CH3<=>CH2O+CH4                      2.400e+13    0.000      0.00
CH3O+CH2O<=>CH3OH+HCO                    6.600e+11    0.000   2285.00
2CH3O<=>CH3OH+CH2O                       6.000e+13    0.000      0.00
CH3OOH(+M)<=>CH3O+OH(+M)                 4.100e+19   -1.153  44226.00

     LOW  /  3.900e+42   -7.502  46730.00 /
     TROE/  0.8375    36562     498.8      9990 /
CH3OOH+H<=>CH2OOH+H2                     5.400e+10    0.000   1860.00
CH3OOH+H<=>CH3OO+H2                      5.400e+10    0.000   1860.00
CH3OOH+H<=>CH3O+H2O                      1.200e+10    0.000   1860.00
CH3OOH+O<=>CH2OOH+OH                     1.600e+13    0.000   4750.00
CH3OOH+O<=>CH3OO+OH                      8.700e+12    0.000   4750.00
CH3OOH+OH<=>CH3OO+H2O                    1.100e+12    0.000   -437.00
CH3OOH+OH<=>CH2OOH+H2O                   7.200e+11    0.000   -258.00
CH3OOH+HO2<=>CH3OO+H2O2                  4.100e+04    2.500  10206.00
CH3OO+H<=>CH3O+OH                        1.000e+14    0.000      0.00
CH3OO+O<=>CH3O+O2                        2.900e+10    1.000   -724.00
CH3OO+OH<=>CH3OH+O2                      1.700e+14    0.000      0.00
CH3OO+HO2<=>CH3OOH+O2                    2.500e+11    0.000  -1490.00
CH3OO+CH3<=>2CH3O                        5.100e+12    0.000  -1411.00
CH3OOH+CH3<=>CH3OO+CH4                   1.600e-03    4.322   -235.00
CH3OO+CH2OH<=>CH2O+CH3OOH                1.200e+13    0.000      0.00
CH3OO+HCO<=>CH3O+H+CO2                   3.000e+13    0.000      0.00
CH3OO+CO<=>CH3O+CO2                      1.600e+05    2.180  17940.00
CH3OO+CH2O<=>CH3OOH+HCO                  4.100e+04    2.500  10206.00
CH3OO+CH2O<=>CH3OOH+H+CO                 2.500e+14    0.027  30133.00
CH3OO+CH3O<=>CH2O+CH3OOH                 3.000e+11    0.000      0.00
CH3OO+CH3OH<=>CH3OOH+CH2OH               4.000e+13    0.000  19400.00
2CH3OO<=>2CH3O+O2                        1.100e+18   -2.400   1800.00
     DUPLICATE
2CH3OO<=>2CH3O+O2                        7.000e+10    0.000    800.00
     DUPLICATE
2CH3OO<=>CH3OH+CH2O+O2                   2.000e+11   -0.550  -1600.00
CH2OOH<=>CH2O+OH                         2.400e+12   -0.925   1567.00
PLOG /     0.040 9.600e+10   -0.925   1567.00 /
PLOG /     1.000 2.400e+12   -0.925   1567.00 /
PLOG /    10.000 2.500e+13   -0.927   1579.00 /
PLOG /   100.000 7.000e+14   -1.064   1744.00 /
HCOH<=>CH2O                              5.200e+13    0.000  32109.00
HCOH<=>CO+H2                             6.600e+13    0.000  49465.00
HCOH+H<=>CH2O+H                          1.000e+14    0.000      0.00
HCOH+H<=>HCO+H2                          2.000e+13    0.000      0.00
HCOH+H<=>H+CO+H2                         1.000e+13    0.000      0.00
HCOH+O<=>CO2+2H                          3.000e+13    0.000      0.00
HCOH+OH<=>HCO+H2O                        2.000e+13    0.000      0.00
HCOH+OH<=>H+CO+H2O                       1.000e+13    0.000      0.00
CH2O+OH<=>HOCH2O                         6.300e+06    1.630   4282.00
HOCH2O<=>HOCHO+H                         1.000e+14    0.000  14900.00
2CH3(+M)<=>C2H6(+M)                      9.500e+14   -0.538    179.00

     LOW  /  1.269e+41   -7.000   2762.00 /
     TROE/    0.62       73      1180     1e+30 /
C2H6+H<=>C2H5+H2                         7.400e+03    3.100   5340.00
     DUPLICATE
C2H6+H<=>C2H5+H2                         3.300e+14    0.000  13667.00
     DUPLICATE
C2H6+O<=>C2H5+OH                         1.800e+05    2.800   5800.00
C2H6+OH<=>C2H5+H2O                       1.600e+06    2.224    741.00
C2H6+HO2<=>C2H5+H2O2                     8.700e+04    2.650  18900.00
C2H6+O2<=>C2H5+HO2                       2.900e+07    1.900  49548.00
C2H6+CH3<=>C2H5+CH4                      3.500e+01    3.440  10384.00
C2H6+CH2(S)<=>C2H5+CH3                   1.200e+14    0.000      0.00
C2H6+CH3OO<=>C2H5+CH3OOH                 1.900e+01    3.640  17100.00
C2H4+H(+M)<=>C2H5(+M)                    1.400e+09    1.463   1355.00
H2/2.00/ H2O/10.00/ CO/1.50/ CO2/3.00/ N2/1.20/ 
     LOW  /  2.000e+39   -6.642   5769.00 /
     TROE/  -0.569      299      9147     152.4 /
C2H5+H(+M)<=>C2H6(+M)                    5.200e+17   -0.990   1580.00
H2/2.00/ H2O/6.00/ CO/1.50/ CO2/2.00/ CH4/2.00/ C2H6/3.00/ AR/0.70/ 
     LOW  /  1.990e+41   -7.080   6685.00 /
     TROE/  0.8422      125      2219      6882 /
C2H5+O<=>CH3+CH2O                        4.200e+13    0.000      0.00
C2H5+O<=>CH3CHO+H                        5.300e+13    0.000      0.00
C2H5+O<=>C2H4+OH                         3.100e+13    0.000      0.00
C2H5+OH<=>C2H4+H2O                       7.900e+22   -2.989   3863.00
PLOG /     0.001 1.300e+19   -1.960    273.00 /
PLOG /     0.010 1.200e+19   -1.953    239.00 /
PLOG /     0.100 4.100e+19   -2.101    625.00 /
PLOG /     1.000 7.900e+22   -2.989   3863.00 /
PLOG /    10.000 2.800e+24   -3.329   7749.00 /
PLOG /   100.000 4.700e+18   -1.581   7999.00 /
C2H5+OH<=>CH3+CH2OH                      6.500e+21   -2.352   6023.00
PLOG /     0.001 9.200e+17   -1.299   2505.00 /
PLOG /     0.010 1.100e+18   -1.321   2569.00 /
PLOG /     0.100 5.700e+18   -1.518   3185.00 /
PLOG /     1.000 6.500e+21   -2.352   6023.00 /
PLOG /    10.000 1.900e+25   -3.249  10576.00 /
PLOG /   100.000 6.500e+22   -2.443  12647.00 /
C2H5+HO2<=>CH3CH2O+OH                    3.100e+13    0.000      0.00
C2H5+O2<=>CH3CH2OO                       4.000e+42   -9.860   8124.00
PLOG /     0.000 1.300e+42  -11.120   5137.00 /
PLOG /     0.000 2.000e+43  -11.300   5485.00 /
PLOG /     0.001 1.200e+44  -11.360   5850.00 /
PLOG /     0.003 3.200e+44  -11.320   6198.00 /
PLOG /     0.010 1.300e+45  -11.330   6761.00 /
PLOG /     0.030 1.200e+45  -11.150   7163.00 /
PLOG /     0.100 4.300e+44  -10.830   7564.00 /
PLOG /     0.300 4.900e+43  -10.370   7810.00 /
PLOG /     1.000 4.000e+42   -9.860   8124.00 /
PLOG /     3.000 1.200e+40   -8.950   7857.00 /
PLOG /    10.000 2.200e+37   -7.950   7525.00 /
PLOG /    30.000 1.600e+34   -6.880   6913.00 /
PLOG /   100.000 1.600e+30   -5.560   5909.00 /
C2H5+O2<=>C2H4+HO2                       2.500e+09    0.510   1157.00
PLOG /     0.000 9.100e+00    2.870  -5099.00 /
PLOG /     0.000 1.200e+01    2.840  -5029.00 /
PLOG /     0.001 2.800e+01    2.730  -4780.00 /
PLOG /     0.003 1.100e+02    2.560  -4380.00 /
PLOG /     0.010 9.600e+02    2.300  -3735.00 /
PLOG /     0.030 1.300e+04    1.980  -2933.00 /
PLOG /     0.100 4.900e+05    1.540  -1790.00 /
PLOG /     0.300 2.400e+07    1.070   -497.70 /
PLOG /     1.000 2.500e+09    0.510   1157.00 /
PLOG /     3.000 1.400e+11    0.040   2789.00 /
PLOG /    10.000 3.100e+12   -0.310   4501.00 /
PLOG /    30.000 5.300e+12   -0.330   5728.00 /
PLOG /   100.000 1.900e+11    0.140   6373.00 /
C2H5+O2<=>CH2CH2OOH                      3.600e+26   -6.030   5715.00
PLOG /     0.000 3.200e+21   -5.530    -83.50 /
PLOG /     0.000 4.600e+23   -6.120    586.30 /
PLOG /     0.001 2.900e+25   -6.600   1279.00 /
PLOG /     0.003 2.900e+24   -6.190   1229.00 /
PLOG /     0.010 5.900e+25   -6.490   2026.00 /
PLOG /     0.030 2.900e+25   -6.260   2449.00 /
PLOG /     0.100 4.600e+26   -6.470   3598.00 /
PLOG /     0.300 4.700e+26   -6.290   4518.00 /
PLOG /     1.000 3.600e+26   -6.030   5715.00 /
PLOG /     3.000 6.300e+25   -5.580   6793.00 /
PLOG /    10.000 6.600e+23   -4.740   7756.00 /
PLOG /    30.000 7.700e+20   -3.630   8319.00 /
PLOG /   100.000 1.900e+15   -1.720   8034.00 /
C2H5+O2<=>CC2H4O+OH                      4.900e+05    1.220   1802.00
PLOG /     0.000 1.400e-05    4.200  -5618.00 /
PLOG /     0.000 1.900e-05    4.160  -5537.00 /
PLOG /     0.001 5.000e-05    4.040  -5260.00 /
PLOG /     0.003 2.300e-04    3.850  -4825.00 /
PLOG /     0.010 2.600e-03    3.550  -4121.00 /
PLOG /     0.030 5.200e-02    3.180  -3238.00 /
PLOG /     0.100 4.100e+00    2.650  -1928.00 /
PLOG /     0.300 6.100e+02    2.040   -370.90 /
PLOG /     1.000 4.900e+05    1.220   1802.00 /
PLOG /     3.000 5.000e+08    0.390   4218.00 /
PLOG /    10.000 8.800e+11   -0.490   7190.00 /
PLOG /    30.000 1.700e+14   -1.090   9936.00 /
PLOG /   100.000 9.700e+14   -1.220  12500.00 /
C2H6+HCO<=>C2H5+CH2O                     2.300e+00    3.740  16933.00
C2H5+HCO<=>C2H6+CO                       4.300e+13    0.000      0.00
C2H5+HCO<=>CH3+CH2CHO                    6.500e+21   -2.352   6023.00
PLOG /     0.001 9.200e+17   -1.299   2505.00 /
PLOG /     0.010 1.100e+18   -1.321   2569.00 /
PLOG /     0.100 5.700e+18   -1.518   3185.00 /
PLOG /     1.000 6.500e+21   -2.352   6023.00 /
PLOG /    10.000 1.900e+25   -3.249  10576.00 /