THERMO ALL
   300.000  1000.000  5000.000
AR                000000AR  1               G    300.00   5000.00 1000.00      1
 2.50000000E+00 0.00000000E+00 0.00000000E+00 0.00000000E+00 0.00000000E+00    2
-7.45375000E+02 4.36600000E+00 2.50000000E+00 0.00000000E+00 0.00000000E+00    3
 0.00000000E+00 0.00000000E+00-7.45375000E+02 4.36600000E+00                   4
N2                000000N   2               G    300.00   5000.00 1000.00      1
 2.92664000E+00 1.48797680E-03-5.68476000E-07 1.00970380E-10-6.75335100E-15    2
-9.22797700E+02 5.98052800E+00 3.29867700E+00 1.40824040E-03-3.96322200E-06    3
 5.64151500E-09-2.44485400E-12-1.02089990E+03 3.95037200E+00                   4
A1CO              000000C   7O   1H   5     G    100.00   5000.00 1019.89      1
 1.76958321E+01 1.42960573E-02-3.17667059E-06 3.75648446E-11 1.29644999E-14    2
 5.51719613E+03-6.77955746E+01 1.69954986E+00 3.75522208E-02 2.06864578E-05    3
-5.35175631E-08 2.24447878E-11 1.08334393E+04 1.97588558E+01                   4
H2O2              000000O   2H   2          G    300.00   5000.00 1000.00      1
 4.16500285E+00 4.90831694E-03-1.90139225E-06 3.71185986E-10-2.87908305E-14    2
-1.78617877E+04 2.91615662E+00 4.27611269E+00-5.42822417E-04 1.67335701E-05    3
-2.15770813E-08 8.62454363E-12-1.77025821E+04 3.43505074E+00                   4
CH                000000C   1H   1          G    300.00   5000.00 1000.00      1
 2.87846473E+00 9.70913681E-04 1.44445655E-07-1.30687849E-10 1.76079383E-14    2
 7.10124364E+04 5.48497999E+00 3.48981665E+00 3.23835541E-04-1.68899065E-06    3
 3.16217327E-09-1.40609067E-12 7.07972934E+04 2.08401108E+00                   4
TXCH2             000000C   1H   2          G    300.00   5000.00 1000.00      1
 2.87410113E+00 3.65639292E-03-1.40894597E-06 2.60179549E-10-1.87727567E-14    2
 4.62636040E+04 6.17119324E+00 3.76267867E+00 9.68872143E-04 2.79489841E-06    3
-3.85091153E-09 1.68741719E-12 4.60040401E+04 1.56253185E+00                   4
CVCCVCCJVO        000000C   5O   1H   5     G    300.00   5000.00 1399.00      1
 1.53178248E+01 1.27352911E-02-4.35882964E-06 6.76912763E-10-3.92771371E-14    2
 7.60582726E+03-5.43599625E+01-2.18492198E-01 5.92100223E-02-5.89241174E-05    3
 2.97411920E-08-5.85244770E-12 1.20600764E+04 2.55968530E+01                   4
CH2CHO            000000C   2O   1H   3     G    298.00   3000.00 1000.00      1
 3.63026330E+00 1.41239404E-02-7.16478146E-06 1.76263004E-09-1.70391996E-13    2
 4.29875072E+02 6.20577997E+00 9.86311004E-01 2.24920216E-02-1.64812936E-05    3
 5.86617239E-09-6.81551147E-13 1.07163704E+03 1.95196726E+01                   4
CH2OH             000000C   1O   1H   3     G    300.00   5000.00 1000.00      1
 3.69266569E+00 8.64576797E-03-3.75101120E-06 7.87234636E-10-6.48554201E-14    2
-3.24250627E+03 5.81043215E+00 3.86388918E+00 5.59672304E-03 5.93271791E-06    3
-1.04532012E-08 4.36967278E-12-3.19391367E+03 5.47302243E+00                   4
A1X               000000C   6H   5          G    298.15   2000.00 1000.00      1
 3.64534182E+00 3.47211258E-02-1.99427625E-05 5.63096428E-09-6.30417456E-13    2
 3.77324336E+04 3.27494460E+00-5.05512557E+00 6.28508508E-02-5.21291329E-05    3
 2.04163999E-08-2.65874021E-12 3.98061344E+04 4.69177066E+01                   4
TXC5H5O           000000C   5O   1H   5     G    300.00   5000.00 1000.00      1
 1.26065350E+01 1.67470670E-02-6.10975870E-06 9.96745760E-10-6.01118340E-14    2
 1.41146570E+03-4.26049110E+01 2.30436010E-01 3.23225720E-02 2.89009080E-05    3
-7.06806130E-08 3.34071740E-11 5.55547240E+03 2.53309460E+01                   4
OC6H4O            000000C   6O   2H   4     G    300.00   3000.00 1000.00      1
 5.70290193E+00 3.85045001E-02-2.28744718E-05 6.43291874E-09-6.94257842E-13    2
-1.40768967E+04-3.71424836E+00-2.04371804E+00 6.60964467E-02-5.67977439E-05    3
 2.24901031E-08-2.67349671E-12-1.24369410E+04 3.43096110E+01                   4
C2H3CHO           000000C   3O   1H   4     G    298.00   3000.00 1000.00      1
 4.27745325E+00 2.08995067E-02-1.10621906E-05 2.80392911E-09-2.76871274E-13    2
-1.01465486E+04 2.26814496E+00 1.30858881E+00 2.90665687E-02-1.85267312E-05    3
 5.10575873E-09-3.12357850E-13-9.34139504E+03 1.75831373E+01                   4
NXC4H5            000000C   4H   5          G    200.00   3500.00 1070.92      1
 8.18469000E+00 1.77780000E-02-8.90671000E-06 2.21354000E-09-2.17483000E-13    2
 3.99461000E+04-1.87467000E+01 1.50021000E+00 3.05927000E-02-9.83406000E-06    3
-7.80542000E-09 4.59501000E-12 4.20747000E+04 1.72136000E+01                   4
C5H4CH2           000000C   6H   6          G    200.00   5000.00 1000.00      1
 1.11035250E+01 2.06006850E-02-7.53022240E-06 1.23886950E-09-7.54159760E-14    2
 2.03618430E+04-3.66651970E+01-7.18131910E-01 3.79343120E-02 1.13988370E-05    3
-4.13335030E-08 1.80559270E-11 2.42238250E+04 2.78557140E+01                   4
C3H3              000000C   3H   3          G    200.00   6000.00 1000.00      1
 7.14221719E+00 7.61902211E-03-2.67460030E-06 4.24914904E-10-2.51475443E-14    2
 3.95710114E+04-1.25848129E+01 1.34577946E+00 3.27862233E-02-4.75146967E-05    3
 3.77892551E-08-1.19201548E-11 4.07684638E+04 1.52273792E+01                   4
SXCH2             000000C   1H   2          G    300.00   5000.00 1000.00      1
 2.29203842E+00 4.65588637E-03-2.01191947E-06 4.17906000E-10-3.39716365E-14    2
 5.09259997E+04 8.62650169E+00 4.19860411E+00-2.36661419E-03 8.23296220E-06    3
-6.68815981E-09 1.94314737E-12 5.04968163E+04-7.69118967E-01                   4
A1CHO             000000C   7O   1H   6     G    300.00   3000.00 1000.00      1
 1.87355756E+00 5.26231551E-02-3.17644962E-05 9.06403069E-09-9.90306123E-13    2
-7.23603865E+03 1.49787009E+01-3.47171048E+00 6.92891889E-02-4.32603509E-05    3
 3.43871096E-09 4.81010261E-12-6.14558774E+03 4.14094024E+01                   4
A1CH2O            000000C   7O   1H   7     G    300.00   3000.00 1000.00      1
 2.07930551E+00 5.52718914E-02-3.31303125E-05 9.40679473E-09-1.02414852E-12    2
 1.17599254E+04 1.58657771E+01-4.75332952E+00 7.85832217E-02-5.57118748E-05    3
 1.19664685E-08 2.51904475E-12 1.31155256E+04 4.93043758E+01                   4
C6H5CYCH2O        000000C   7O   1H   7     G    300.00   5000.00 1402.00      1
 1.91923903E+01 1.99832445E-02-6.84837707E-06 1.06493580E-09-6.18638645E-14    2
 1.07135098E+04-8.01938374E+01-5.76102318E+00 8.61923944E-02-7.51548526E-05    3
 3.33118351E-08-5.87864067E-12 1.85278620E+04 5.09131733E+01                   4
C6H5OCH2          000000C   7O   1H   7     G    300.00   5000.00 1404.00      1
 1.95297801E+01 1.87267777E-02-6.38766571E-06 9.90128481E-10-5.73893448E-14    2
 6.02346737E+03-7.94661634E+01-4.09410014E+00 8.27000306E-02-7.37585370E-05    3
 3.33910070E-08-5.99308538E-12 1.32919235E+04 4.41961425E+01                   4
C5H4CH3           000000C   6H   7          G    300.00   5000.00 1400.00      1
 1.50272937E+01 1.80083785E-02-6.16578517E-06 9.57991706E-10-5.56127818E-14    2
 1.93817415E+04-5.65979232E+01-3.91288831E+00 6.72649774E-02-5.62562950E-05    3
 2.44181559E-08-4.27683233E-12 2.54520537E+04 4.33343548E+01                   4
C5H6              000000C   5H   6          G    300.00   3000.00 1000.00      1
 2.30537462E-01 4.09571826E-02-2.41588958E-05 6.79763480E-09-7.36374421E-13    2
 1.43779465E+04 2.02551234E+01-5.13691194E+00 6.06953453E-02-4.60552837E-05    3
 1.28457201E-08 7.41214852E-13 1.53675713E+04 4.61567559E+01                   4
C5H5CH3           000000C   6H   8          G    300.00   5000.00 1398.00      1
 1.50340047E+01 2.04185116E-02-6.97043123E-06 1.08100581E-09-6.26770876E-14    2
 4.36152703E+03-5.84840756E+01-4.85526203E+00 7.01843167E-02-5.64257356E-05    3
 2.45599738E-08-4.55996125E-12 1.09594237E+04 4.72361312E+01                   4
C3H2              000000C   3H   2          G    300.00   5000.00 1000.00      1
 7.67920588E+00 3.85560826E-03-8.23429967E-07-6.18108592E-11 2.93114202E-14    2
 6.29136323E+04-1.42211873E+01 4.52861333E+00 1.77565501E-02-2.54882946E-05    3
 2.01674629E-08-6.28544707E-12 6.35410087E+04 8.09423748E-01                   4
AXC3H4            000000C   3H   4          G    300.00   5000.00 1000.00      1
 2.56128757E+00 1.95080128E-02-1.04061366E-05 2.70165173E-09-2.75074329E-13    2
 2.13894289E+04 9.20550397E+00 3.68928265E-01 2.89351397E-02-2.44386408E-05    3
 1.12547166E-08-2.03040262E-12 2.17585256E+04 1.95267211E+01                   4
A1OH              000000C   6O   1H   6     G    298.15   2000.00 1000.00      1
 5.98175304E+00 3.82279981E-02-2.21176162E-05 6.39877372E-09-7.44634423E-13    2
-1.47607480E+04-8.17803532E+00-5.47415498E+00 7.95011500E-02-7.72016239E-05    3
 3.85709653E-08-7.65006229E-12-1.22420424E+04 4.82277188E+01                   4
C6H6O             000000C   6O   1H   6     G    300.00   5000.00 1398.00      1
 1.59036713E+01 1.78013991E-02-6.12108521E-06 9.53935313E-10-5.54992080E-14    2
-1.00818721E+04-6.16827813E+01-3.78295265E+00 6.73949119E-02-5.45517149E-05    3
 2.26537091E-08-3.79446033E-12-3.64301457E+03 4.27055399E+01                   4
CH2CO             000000C   2O   1H   2     G    300.00   5000.00 1000.00      1
 4.51129732E+00 9.00359745E-03-4.16939635E-06 9.23345882E-10-7.94838201E-14    2
-7.55105311E+03 6.32247205E-01 2.13583630E+00 1.81188721E-02-1.73947474E-05    3
 9.34397568E-09-2.01457615E-12-7.04291804E+03 1.22156480E+01                   4
HCCO              000000C   2O   1H   1     G    300.00   5000.00 1000.00      1
 5.62820580E+00 4.08534010E-03-1.59345470E-06 2.86260520E-10-1.94078320E-14    2
 1.93272150E+04-3.93025950E+00 2.25172140E+00 1.76550210E-02-2.37291010E-05    3
 1.72757590E-08-5.06648110E-12 2.00594490E+04 1.24904170E+01                   4
C2H3              000000C   2H   3          G    100.00   5000.00  956.69      1
 4.81087656E+00 6.59337838E-03-2.20129495E-06 4.04587872E-10-2.98091068E-14    2
 3.37427523E+04-1.85774644E+00 3.83146115E+00-7.47448486E-04 2.72388708E-05    3
-3.26055590E-08 1.18614714E-11 3.44534845E+04 5.55913311E+00                   4
CH4               000000C   1H   4          G    300.00   5000.00 1000.00      1
 1.65326226E+00 1.00263099E-02-3.31661238E-06 5.36483138E-10-3.14696758E-14    2
-1.00095936E+04 9.90506283E+00 5.14911468E+00-1.36622009E-02 4.91453921E-05    3
-4.84246767E-08 1.66603441E-11-1.02465983E+04-4.63848842E+00                   4
C2H6              000000C   2H   6          G    300.00   5000.00 1000.00      1
 1.07188150E+00 2.16852677E-02-1.00256067E-05 2.21412001E-09-1.90002890E-13    2
-1.14263932E+04 1.51156107E+01 4.29142492E+00-5.50154270E-03 5.99438288E-05    3
-7.08466285E-08 2.68685771E-11-1.15222055E+04 2.66682316E+00                   4
AXC3H5            000000C   3H   5          G    200.00   3000.00 1000.00      1
 4.22973890E+00 1.88238808E-02-8.86343156E-06 2.03225185E-09-1.84214522E-13    2
 1.78789497E+04 9.28205318E-01 1.47214563E+00 1.77370863E-02 1.80437301E-05    3
-3.95394054E-08 1.83246688E-11 1.89020240E+04 1.68401967E+01                   4
C3H6              000000C   3H   6          G    200.00   6000.00 1000.00      1
 6.03870234E+00 1.62963931E-02-5.82130800E-06 9.35936829E-10-5.58603143E-14    2
-7.41715057E+02-8.43825992E+00 3.83464468E+00 3.29078952E-03 5.05228001E-05    3
-6.66251176E-08 2.63707473E-11 7.88717123E+02 7.53408013E+00                   4
CH3O              000000C   1O   1H   3     G    300.00   5000.00 1000.00      1
 3.77079900E+00 7.87149700E-03-2.65638400E-06 3.94443100E-10-2.11261600E-14    2
 1.27832520E+02 2.92957500E+00 2.10620400E+00 7.21659500E-03 5.33847200E-06    3
-7.37763600E-09 2.07561000E-12 9.78601100E+02 1.31521770E+01                   4
C2H2              000000C   2H   2          G    100.00   5000.00  962.80      1
 5.02077795E+00 4.22470269E-03-1.42000136E-06 2.56105133E-10-1.84544863E-14    2
 2.55666188E+04-6.22588857E+00 3.11331938E+00 6.02058533E-03 5.33031324E-06    3
-1.10293378E-08 4.62859887E-12 2.62179845E+04 4.37938268E+00                   4
C5H5              000000C   5H   5          G    300.00   3000.00 1000.00      1
 4.21464919E+00 2.71834728E-02-1.33173209E-05 3.08980119E-09-2.77879873E-13    2
 2.88952416E+04-3.05999781E-02-7.37844042E+00 9.72391818E-02-1.69579138E-04    3
 1.51818667E-07-5.12075479E-11 3.05514662E+04 5.12829539E+01                   4
O                 000000O   1               G    300.00   5000.00 1000.00      1
 2.56942078E+00-8.59741137E-05 4.19484589E-08-1.00177799E-11 1.22833691E-15    2
 2.92175791E+04 4.78433864E+00 3.16826710E+00-3.27931884E-03 6.64306396E-06    3
-6.12806624E-09 2.11265971E-12 2.91222592E+04 2.05193346E+00                   4
A1                000000C   6H   6          G    200.00   3500.00  950.77      1
 4.06749000E+00 3.53350000E-02-1.82495000E-05 4.47453000E-09-4.21489000E-13    2
 6.76912000E+03-2.06220000E+00-2.81519000E+00 4.68382000E-02-8.86217000E-06    3
-2.14154000E-08 1.14630000E-11 8.86673000E+03 3.49438000E+01                   4
HCO               000000C   1O   1H   1     G    300.00   5000.00 1000.00      1
 2.77217438E+00 4.95695526E-03-2.48445613E-06 5.89161778E-10-5.33508711E-14    2
 4.01191815E+03 9.79834492E+00 4.22118584E+00-3.24392532E-03 1.37799446E-05    3
-1.33144093E-08 4.33768865E-12 3.83956496E+03 3.39437243E+00                   4
CH2O              000000C   1O   1H   2     G    300.00   5000.00 1000.00      1
 1.76069008E+00 9.20000082E-03-4.42258813E-06 1.00641212E-09-8.83855640E-14    2
-1.39958323E+04 1.36563230E+01 4.79372315E+00-9.90833369E-03 3.73220008E-05    3
-3.79285261E-08 1.31772652E-11-1.43089567E+04 6.02812900E-01                   4
HO2               000000O   2H   1          G    300.00   5000.00 1000.00      1
 4.17228741E+00 1.88117627E-03-3.46277286E-07 1.94657549E-11 1.76256905E-16    2
 3.10206839E+01 2.95767672E+00 4.30179807E+00-4.74912097E-03 2.11582905E-05    3
-2.42763914E-08 9.29225225E-12 2.64018485E+02 3.71666220E+00                   4
H                 000000H   1               G    100.00   5000.00 3459.60      1
 2.49999999E+00 9.20455546E-12-3.58608293E-15 6.15198922E-19-3.92041801E-23    2
 2.54742178E+04-4.44972842E-01 2.50000000E+00 9.24384602E-15-1.36779837E-17    3
 6.66184769E-21-1.00106912E-24 2.54742178E+04-4.44972896E-01                   4
C2H4              000000C   2H   4          G    100.00   5000.00  979.36      1
 3.55660610E+00 1.10627464E-02-4.17019079E-06 7.85586770E-10-5.70060829E-14    2
 4.32046489E+03 2.17719479E+00 3.97471606E+00-4.75844285E-03 4.16783770E-05    3
-4.51392516E-08 1.54224761E-11 4.91540746E+03 3.62430844E+00                   4
C2H5              000000C   2H   5          G    300.00   5000.00 1000.00      1
 1.95465642E+00 1.73972722E-02-7.98206668E-06 1.75217689E-09-1.49641576E-13    2
 1.28575200E+04 1.34624343E+01 4.30646568E+00-4.18658892E-03 4.97142807E-05    3
-5.99126606E-08 2.30509004E-11 1.28416265E+04 4.70720924E+00                   4
A1O               000000C   6O   1H   5     G    298.15   2000.00 1000.00      1
 4.91310577E+00 3.82697431E-02-2.30456960E-05 6.90570351E-09-8.31506998E-13    2
 3.70238235E+03-2.20607182E+00-4.68515694E+00 7.07969018E-02-6.30375959E-05    3
 2.77010780E-08-4.56387758E-12 5.91532949E+03 4.55664705E+01                   4
CH3               000000C   1H   3          G    300.00   5000.00 1000.00      1
 2.97812060E+00 5.79785200E-03-1.97558000E-06 3.07297900E-10-1.79174160E-14    2
 1.65095130E+04 4.72247990E+00 3.65717970E+00 2.12659790E-03 5.45838830E-06    3
-6.61810030E-09 2.46570740E-12 1.64227160E+04 1.67353540E+00                   4
OH                000000O   1H   1          G    300.00   5000.00 1000.00      1
 2.86472886E+00 1.05650448E-03-2.59082758E-07 3.05218674E-11-1.33195876E-15    2
 3.71885774E+03 5.70164073E+00 4.12530561E+00-3.22544939E-03 6.52764691E-06    3
-5.79853643E-09 2.06237379E-12 3.38153812E+03-6.90432960E-01                   4
CO                000000C   1O   1          G    300.00   5000.00 1000.00      1
 2.71518561E+00 2.06252743E-03-9.98825771E-07 2.30053008E-10-2.03647716E-14    2
-1.41518724E+04 7.81868772E+00 3.57953347E+00-6.10353680E-04 1.01681433E-06    3
 9.07005884E-10-9.04424499E-13-1.43440860E+04 3.50840928E+00                   4
C6H5OCH3          000000C   7O   1H   8     G    300.00   5000.00 1393.00      1
 2.03938728E+01 2.09088165E-02-7.22522263E-06 1.12997840E-09-6.59097524E-14    2
-1.85558154E+04-8.62920505E+01-5.40888697E+00 8.73332441E-02-7.39639658E-05    3
 3.20208039E-08-5.56946955E-12-1.02318239E+04 5.00696056E+01                   4
CO2               000000C   1O   2          G    300.00   5000.00 1000.00      1
 3.85746029E+00 4.41437026E-03-2.21481404E-06 5.23490188E-10-4.72084164E-14    2
-4.87591660E+04 2.27163806E+00 2.35677352E+00 8.98459677E-03-7.12356269E-06    3
 2.45919022E-09-1.43699548E-13-4.83719697E+04 9.90105222E+00                   4
O2                000000O   2               G    300.00   5000.00 1000.00      1
 3.28253784E+00 1.48308754E-03-7.57966669E-07 2.09470555E-10-2.16717794E-14    2
-1.08845772E+03 5.45323129E+00 3.78245636E+00-2.99673416E-03 9.84730201E-06    3
-9.68129509E-09 3.24372837E-12-1.06394356E+03 3.65767573E+00                   4
H2                000000H   2               G    100.00   5000.00 1522.54      1
 3.18685793E+00 1.91831968E-04 2.13778007E-07-6.16100081E-11 4.90274624E-15    2
-8.68610051E+02-2.39505918E+00 3.48836221E+00 9.89580039E-05-3.83604271E-07    3
 5.01598766E-10-1.37104049E-13-1.04146650E+03-4.24254296E+00                   4
H2O               000000O   1H   2          G    300.00   5000.00 1000.00      1
 3.03399249E+00 2.17691804E-03-1.64072518E-07-9.70419870E-11 1.68200992E-14    2
-3.00042971E+04 4.96677010E+00 4.19864056E+00-2.03643410E-03 6.52040211E-06    3
-5.48797062E-09 1.77197817E-12-3.02937267E+04-8.49032208E-01                   4
OC8H7OOH          000000C   8O   3H   8     G    300.00   4000.00 1000.00      1
 5.90515216E+00 6.70729450E-02-4.03281386E-05 1.14965704E-08-1.25640981E-12    2
-2.17516302E+04 5.77311543E-01-1.93576547E+00 9.24900716E-02-6.09729593E-05    3
 7.89850275E-09 5.41026965E-12-2.01714879E+04 3.91784215E+01                   4
