ELEMENTS
C  H  O  N  AR HE 
END
SPECIES
C6H5OCH3          C6H5OCH2          C6H4OCH3          HOC6H4OCH3        HOC6H4OCH2        OC6H4OCH3         C8H8O             C8H7O             
C8H7O             HOC6H4C2H5        HOC6H4C2H4        CH3C6H4OCH3       CH3C6H4OCH2       CH2C6H4OCH3       OOC6H4OCH3        HOC6H4OCH2OO      
C6H5OCH2OO        OXOOC6H4OH        PXOOC6H4OH        CH3C6H4OCH2OO     C6H5CYCH2O        CH3C6H4CYCH2O     HOC6H4CYCH2O      C6H5OCH2OOH       
HOC6H4OCH2OOH     CH3C6H4OCH2OOH    C5H3O             HOC6H4C2H4        A2R5              A2R5              A2C2H2            A2C2H3            
A2CHO             A2CO              C6H5C2H           CVCCVCCVO         NAPHOH            C9H7O             OXHOC6H4OH        OXOC6H4OH         
PXHOC6H4OH        PXOC6H4OH         C6H6O             C6H6O             C6H6O             OVCCVCVO          C4D13KET          C5H5CH3           
C5H5CH3           C5H5CH2           C5H5CH2           A1C4H5            C8H6O             HOC6H4C2H3        CYC6H7            CYHX14ENE         
CYHX13ENE         C5H4CH3           C5H5OOH           C5H5OO            C5H5CH2           CJVCCVCVO         OVCCVCCVO         OVCCVCCJVO        
AR                N2                HE                H2                H                 O2                O                 H2O               
OH                OHV               H2O2              HO2               CO                CO2               HOCO              CH4               
CH3               CH2               CH2(S)            C                 CH                CHV               CH3O2H            CH3O2             
CH2O2H            CH3OH             CH3O              CH2OH             CH2O              HCO               HCOH              HO2CHO            
HOCH2O2H          HOCH2O2           OCH2O2H           HOCH2O            O2CHO             HOCHO             OCHO              C2H6              
C2H5              C2H5O2H           C2H5O2            C2H4              C2H3              CHOCHO            C2H3OOH           C2H3OO            
CHCHO             C2H2              C2H               H2CC              C2H5OH            C2H5O             PC2H4OH           SC2H4OH           
O2C2H4OH          C2H4O2H           C2H4O1            C2H3O1            CH3CHO            CH3CO             CH2CHO            O2CH2CHO          
HO2CH2CO          C2H3OH            C2H2OH            CH2CO             HCCO              HCCOH             CH3CO3H           CH3CO3            
CH3CO2            CH3OCH3           CH3OCH2           CH3OCH2O2H        CH3OCH2O2         CH2OCH2O2H        O2CH2OCH2O2H      HO2CH2OCHO        
OCH2OCHO          HOCH2OCO          CH3OCH2O          CH3OCHO           CH3OCO            CH2OCHO           C3H8              IC3H7             
NC3H7             NC3H7O2H          NC3H7O2           IC3H7O2H          IC3H7O2           NC3H7O            IC3H7O            C3H6OOH1          
C3H6OOH1          C3H6OOH2          C3H6OOH1          C3H6OOH1          C3H6OOH2          C3KET12           C3KET13           C3H51             
C3H52             C3H5O1X2OOH       C3H5O1X3OOH       C3H6O1            C3H6O1            C3H6              C3H5              C3H5              
C3H5              CC3H6             C3H5O             CH2CHOCH2         CH3CHCHO          AC4H7OOH          C3H6OH1           CH3CHCO           
AC3H5OOH          C3H6OH2           HOC3H6O2          SC3H5OH           IC3H5OH           C3H5OH            CH2CCH2OH         C3H4              
C3H4              C3H3              CC3H4             C3H2              H2CCC(S)          C3H2(S)           C3H2C             PC3H4OH           
SC3H4OH           C3H3O             C3H3O2H           C2HCHO            C2H5CHO           C2H5CO            CH2CH2CHO         C2H3CHO           
C2H3CO            CH3COCH3          CH3COCH2          CH3COCH2O2        CH3COCH2O         C3KET21           C4H10             PC4H9             
SC4H9             PC4H9O            SC4H9O            PC4H9O2           SC4H9O2           PC4H9O2H          SC4H9O2H          C4H8OOH1          
C4H8OOH1          C4H8OOH1          C4H8OOH2          C4H8OOH2          C4H8OOH2          C4H8O1            C4H8O1            C4H8O1            
C4H8O2            C4H8OOH1          C4H8OOH1          C4H8OOH1          C4H8OOH2          C4H8OOH2          C4H8OOH2          C4H71             
C4H72             C4H72             C4H71             C4H7O1X3OOH       C4H7O1X3OOH       C4H7O1X2OOH       C4H7O1X4OOH       C4H7O1X2OOH       
C4H7O2X3OOH       C4H72             NC4KET12          NC4KET13          NC4KET14          NC4KET21          NC4KET23          NC4KET24          
C4H71             C4H71             C4H72             HO2CH2CHO         IC4H10            IC4H9             TC4H9             TC4H9O            
IC4H9O            IC4H8O            IC3H7CHO          IC3H7CO           IC3H6CHO          TC3H6CHO          IC3H5CHO          TC3H6O2CHO        
IC3H5O2HCHO       TC3H6O2HCO        TC3H6OCHO         IC3H6CO           IC3H5CO           IC3H4CHO          SC4H7OH           IC4H9O2           
TC4H9O2           IC4H8O2H          IC4H8O2H          TC4H8O2H          CC4H8O            IC4H8OOH          IC4H8OOH          TC4H8OOH          
IC4KETII          IC4KETIT          TIC4H7Q2          IIC4H7Q2          IIC4H7Q2          IC4H7OOH          IC4H9O2H          TC4H9O2H          
IC4H8             IC4H7             IC4H7             IC4H7O2           IC4H6OOH          CCYCCOOC          C2CYCOOC          IC4H7O            
CVCYCCOC          CCYC2OCO          CCYCCOOC          CHOIC3H6O         IC3H5OOCH2        CCYCCO            IC4H8OH           IC4H8OH           
IC4H7OH           IC4H8OH           IC4H6OH           TQJC4H8OH         TQC4H8OI          QC4H7OHP          TQC4H7OHI         CCY(CCO)COH       
C2CY(COC)OH       IQJC4H8OH         IC3H6OHCHO        IQC4H8OT          IQC4H7OHT         CCY(CCOC)OH       CH2COHCH2OOH      TC3H6OH           
TQC4H7OHIO2       TQC4H7OHTO2       TQC4H7OHIQ        TQC4H7OHIQ        IC3H5COHQ         CH2CQCOHQ         IC3H5Q            COHQCYC(COC)      
QCYC(CCOC)OH      HOCOCQ(CH3)2      IQC4H7OHTO2       IQC4H8OTQ         IQC4H7OHTQ        CHOC(CH3)OHCH2Q   CO(CH2OOH)2       IC3H5OCH2         
IC4H7OOCH3        IC4H7OOIC4H7      C4H8              C4H8              C4H71             C4H71             C4H71             C4H71             
C4H72             C4H71             PC4H8OH           SC4H8OH           SC4H8OH           C4H71             C4H71             C4H71             
C4H71             C4H72             C4H72             SQC4H8OP          PQC4H8OS          PQC4H7OHS         NC4KET12OH        SQC4H7OHS         
SQC4H8OS          NC4KET23OH        SC4H8OH           CCY(COCC)OH       C4H7O2            C4H6              AC3H5OCH2         SC3H5OCH2         
C8H141X5D3        C8H141            C8H142            C8H131X5D3        C8H131            C8H131            C8H131            C8H132            
C8H132            C6H101            C8H131X5D3        C8H131            C8H131            C8H131            C8H132            C8H132            
C7H111            C7H111            C4H64D2           C4H63D1           C4H63D1           C4H63D1           C4H5OH            SQC4H7OHP         
CY(CCCO)COH       NC4KET21OH        C2H5CHOHCO        CH3COCOHCH3       C2H4COCH2OH       CH3COHCO          CH2COHCHO         SQC4H7OHP         
PQC4H7OHS         SQC4H7OHS         C4H7O2            NC4KET13OH        NC4KET24OH        NC4KET24OH        C4H6OHOOH1X4      C4H6OHOOH2X2      
C4H6OHOOH1X3      C4H6OHOOH1X2      HOCH2CHO          C4H71             C4H71             C4H61             C4H6O1            C4H6O2            
HOCH2COCH2        HOCH2CO           HOCHCHO           PC3H4OH           PC3H4OH           CH3COCHOH         SC2H2OH           PC4H8OH           
PC4H8OH           C4H7O1            PC4H8OH           SC4H8OH           CH2COHCO          C4H72             C4H71             C4H71             
C3H6OH1           PC4H8OH           SC4H8OH           C4H71             C4H72             C4H6              C4H612            C4H6              
C4H5              C4H5              C4H5              C4H4              C4H3              C4H3              C4H2              C4H6O25           
C2H3CHOCH2        C4H4O             C4H6O23           CH2CHCHCHO        H2C4O             NC3H7CHO          NC3H7CO           C3H6CHO           
C3H6CHO           C3H6CHO           SC3H5CHO          SC3H5CO           C2H5COCH3         C2H5COCH2         CH2CH2COCH3       CH3CHCOCH3        
C2H3COCH3         CH3CHOOCOCH3      CH2CHOOHCOCH3     C2H5CHCO          NC5H12            C5H11             C5H11             C5H11             
C5H11O2H          C5H11O2H          C5H11O2H          C5H11O2           C5H11O2           C5H11O2           C5H11O            C5H11O            
C5H11O            C5H10OOH1         C5H10OOH1         C5H10OOH1         C5H10OOH1         C5H10OOH2         C5H10OOH2         C5H10OOH2         
C5H10OOH2         C5H10OOH3         C5H10OOH3         C5H10O1           C5H10O1           C5H10O1           C5H10O1           C5H10O2           
C5H10O2           C5H10OOH1         C5H10OOH1         C5H10OOH1         C5H10OOH1         C5H10OOH2         C5H10OOH2         C5H10OOH2         
C5H10OOH2         C5H10OOH3         C5H10OOH3         C5H91             C5H91             C5H91             C5H91             C5H91             
C5H91             C5H92             C5H92             C5H92             C5H92             C5H92             C5H92             C5H93             
C5H93             C5H93             C5H93             C5H91             C5H91             C5H91             C5H92             C5H92             
C5H92             C5H9O1X2OOH       C5H9O1X2OOH       C5H9O1X2OOH       C5H9O1X3OOH       C5H9O1X3OOH       C5H9O1X3OOH       C5H9O1X4OOH       
C5H9O1X4OOH       C5H9O1X4OOH       C5H9O1X5OOH       C5H9O1X5OOH       C5H9O2X3OOH       C5H9O2X3OOH       C5H9O2X3OOH       C5H9O2X4OOH       
C5H9O2X4OOH       C5H9O1X2O         CH2CH2OCH2CH2CHO  NC5KET12          NC5KET13          NC5KET14          NC5KET15          NC5KET21          
NC5KET23          NC5KET24          NC5KET25          NC5KET31          NC5KET32          NC5KET12O         NC5KET13O         NC5KET14O         
NC5KET15O         NC5KET21O         NC5KET23O         NC5KET24O         NC5KET25O         NC5KET31O         NC5KET32O         NC5DIONE13        
NC5DIONE24        C5H10OH23         O2C5H10OH23       OCH2CHO           CH2OCH2CHO        C2H4OCHO          C5H10OOH1         C5H10OOH2         
C5H10OOH3         NC5CYCPER13       NC5CYCPER24       NC5CYCPER31       IC5H12            AC5H11            BC5H11            CC5H11            
DC5H11            AC5H9O            AC5H11O2H         BC5H11O2H         CC5H11O2H         DC5H11O2H         AC5H11O2          BC5H11O2          
CC5H11O2          DC5H11O2          AC5H11O           BC5H11O           CC5H11O           DC5H11O           AC5H10OOH         AC5H10OOH         
AC5H10OOH         AC5H10OOH         BC5H10OOH         BC5H10OOH         BC5H10OOH         CC5H10OOH         CC5H10OOH         CC5H10OOH         
DC5H10OOH         DC5H10OOH         DC5H10OOH         AXAC5H10O         AXBC5H10O         AXCC5H10O         AXDC5H10O         BXCC5H10O         
BXDC5H10O         CXDC5H10O         AC5H10OOH         AC5H10OOH         AC5H10OOH         AC5H10OOH         BC5H10OOH         BC5H10OOH         
BC5H10OOH         CC5H10OOH         CC5H10OOH         CC5H10OOH         DC5H10OOH         DC5H10OOH         DC5H10OOH         C5H9A             
C5H9A             C5H9A             C5H9A             C5H9A             C5H9A             C5H9B             C5H9B             C5H9B             
C5H9B             C5H9C             C5H9C             C5H9C             C5H9C             C5H9D             C5H9D             C5H9D             
C5H9D             C5H9A             C5H9A             C5H9A             C5H9B             C5H9B             C5H9C             C5H9C             
C5H9OAXAOOH       C5H9OAXAOOH       C5H9OAXAOOH       C5H9OAXBOOH       C5H9OAXBOOH       C5H9OAXBOOH       C5H9OAXCOOH       C5H9OAXCOOH       
C5H9OAXCOOH       C5H9OAXDOOH       C5H9OAXDOOH       C5H9OAXDOOH       C5H9OBXCOOH       C5H9OBXCOOH       C5H9OBXDOOH       C5H9OBXDOOH       
C5H9OCXDOOH       C5H9OCXDOOH       CH3COCH2OCH2CH2   IC5KETAA          IC5KETAB          IC5KETAC          IC5KETAD          IC5KETCA          
IC5KETCB          IC5KETCD          IC5KETDA          IC5KETDB          IC5KETDC          IC5KETAAO         IC5KETABO         IC5KETACO         
IC5KETADO         IC5KETCAO         IC5KETCBO         IC5KETCDO         IC5KETDAO         IC5KETDBO         IC5KETDCO         AC5H10OH          
BC5H10OH          CC5H10OH          AO2C5H10OH        BO2C5H10OH        CO2C5H10OH        IC3H5COCH3        IC3H5COCH2        AC3H4COCH3        
NEOC5H12          NEOC5H11          NEOC5H11O2H       NEOC5H11O2        NEOC5H11O         NEOC5H10OOH       NEOXC5H10O        NEOC5H10OOH       
NEOC5H9Q2         NEOC5KET          NEOC5KETOX        NEOC5KEJOL        IC4H6Q2           NEOC5H9O          C5H10             C5H10             
C5H81             C5H91             C5H91             C5H91             C5H92             C5H92             C5H9O1            C5H9O2            
BC5H10            CC5H10            CC5H9             CC5H9             AC5H9O            CC5H9O            AC5H10            AC5H9             
AC5H9             AC5H9             B2E2M1OJ          B13DE2M           B13DE2MJ          B12DE3M           B2E3M1OJ          TC4H8CHO          
O2C4H8CHO         O2HC4H8CO         CPT               CYC5H9            CYC5H8            CYC5H71           CYC5H71           CYC51EN3OJ        
C53OH1EN5J        C5H5              C5H6              C4H6CHO2          C4H6CHO4          CJVCCVO           CPTO2H            CPTO2J            
CPT1Q2J           CPT1Q3J           CPTOJ             CPTQ2QJ           CPTQ3QJ           CPT1YO2Q          CPT1YO3Q          CPT1YO2J          
CPTYO12           CPTYO123J         CYC5O1EN5J        PT1N3YO5J         C2H3OC3H4A        PT1N1Q5J          PT1N3Q5J          PT1N4Q5J          
CPTO              CPTYO13           C5H8D14           C5H714            CVCCVCCJ          PC4H8CHO          C4H6CHO1          PC4H9CO           
C4H7CHO           C4H7CO1           PC4H9CHO          PC4H8CHO          PC4H8CHO          PC4H8CHO          PC4H8CHO          C4H7CHO           
C4H7CHO           PC4H8CHO          PC4H8CHO          PC4H8CHO          NC3H7COCH3        C2H5COC2H5        NC3H7COCH2        CH3CH2CHCOCH3     
CH3CHCH2COCH3     CH2CH2CH2COCH3    CH2CH2COC2H5      CH3CHCOC2H5       NC52ONEO2         NC52ONEO2         NC52ONEO2         NC53ONEO2         
NC53ONEO2         NC52ONE           NC52ONE           NC53ONE           NC5H11OH          C5H10OH11         C5H10OH12         C5H10OH13         
C5H10OH14         C5H10OH15         C5H10OH           C5H10OH           C5H10OH           C5H10OH           C5H10OH           C5H9OH1           
C5H9OH1           C5H9OH1           C5H9OH1           NC6H14            C6H13             C6H13             C6H13             C6H13OOH          
C6H13OOH          C6H13OOH          C6H13O2           C6H13O2           C6H13O2           C6H13O            C6H13O            C6H13O            
C6H12OOH1         C6H12OOH1         C6H12OOH1         C6H12OOH1         C6H12OOH2         C6H12OOH2         C6H12OOH2         C6H12OOH2         
C6H12OOH2         C6H12OOH3         C6H12OOH3         C6H12OOH3         C6H12OOH3         C6H12OOH3         C6H12O1           C6H12O1           
C6H12O1           C6H12O1           C6H12O2           C6H12O2           C6H12O2           C6H12O3           C6H12OOH1         C6H12OOH1         
C6H12OOH1         C6H12OOH1         C6H12OOH2         C6H12OOH2         C6H12OOH2         C6H12OOH2         C6H12OOH2         C6H12OOH3         
C6H12OOH3         C6H12OOH3         C6H12OOH3         C6H12OOH3         C6H11             C6H11             C6H11             C6H11             
C6H11             C6H11             C6H11             C6H11             C6H11             C6H11             C6H11Q12          C6H11Q12          
C6H11Q12          C6H11Q12          C6H11Q13          C6H11Q13          C6H11Q13          C6H11Q13          C6H11Q14          C6H11Q14          
C6H11Q14          C6H11Q14          C6H11Q15          C6H11Q15          C6H11Q15          C6H11Q15          C6H11Q23          C6H11Q23          
C6H11Q23          C6H11Q23          C6H11Q24          C6H11Q24          C6H11Q24          C6H11Q24          C6H11Q25          C6H11Q25          
C6H11Q34          C6H11Q34          C6KET12           C6KET13           C6KET14           C6KET15           C6KET21           C6KET23           
C6KET24           C6KET25           C6KET26           C6KET31           C6KET32           C6KET34           C6KET35           C6KET36           
C5H91             C6H11O12          C6H11O12          C6H11O12          C6H11O12          C6H11O13          C6H11O13          C6H11O13          
C6H11O13          C6H11O14          C6H11O14          C6H11O14          C6H11O14          C6H11O15          C6H11O15          C6H11O15          
C6H11O15          C6H11O23          C6H11O23          C6H11O23          C6H11O23          C6H11O24          C6H11O24          C6H11O24          
C6H11O24          C6H11O25          C6H11O25          C6H11O34          C6H11O34          C4H7O12           C4H7O13           C4H7O23           
C5H9O12           C5H9O13           C5H9O14           C5H9O23           C5H9O23           C5H9O24           AC3H5CHO          C6KET12O          
C6KET13O          C6KET14O          C6KET15O          C6KET21O          C6KET23O          C6KET24O          C6KET25O          C6KET26O          
C6KET31O          C6KET32O          C6KET34O          C6KET35O          C6KET36O          C6H12OOH1         C6H12OOH1         C6H12OOH1         
C6H12OOH1         C6H12OOH2         C6H12OOH2         C6H12OOH2         C6H12OOH2         C6H12OOH2         C6H12OOH3         C6H12OOH3         
C6H12OOH3         C6H12OOH3         C6H12OOH3         NC5H11CHO         CH3COOH           C2H5COOH          C6H12             C6H12             
C6H12             C6H111            C6H111            C6H111            C6H111            C6H112            C6H112            C6H112            
C6H113            C6H12OH           C6H12OH           C6H12OH           C6H12OH           C6H12OH           C6H12OHX1O2       C6H12OHX2O2       
C6H12OHX2O2       C6H12OHX3O2       C6H12OHX3O2       C6H11             C6H11             C6H11             C6H11             C6H11             
C6H11             C6H11             C6H11             C6H11             C6H10D14          C6H112O2          C6H111O2          C6H111O2          
C6H111O2          C6H111O2          C6H112O2          C6H112O2          C6H112O2          C6H113O2          C6H113O2          C6H101OOH3        
C6H101OOH3        C6H101OOH3        C6H101OOH4        C6H101OOH4        C6H101OOH4        C6H101OOH5        C6H101OOH5        C6H101OOH5        
C6H101OOH6        C6H101OOH6        C6H101OOH6        C6H102OOH4        C6H102OOH4        C6H102OOH5        C6H102OOH5        C6H102OOH6        
C6H102OOH6        C6H103OOH1        C6H103OOH2        ETES1             MVOX              VTHF              EDHF              C6H101OOH3        
C6H101OOH3        C6H101OOH3        C6H101OOH4        C6H101OOH4        C6H101OOH4        C6H101OOH5        C6H101OOH5        C6H101OOH5        
C6H101OOH6        C6H101OOH6        C6H101OOH6        C6H102OOH4        C6H102OOH4        C6H102OOH5        C6H102OOH5        C6H102OOH6        
C6H102OOH6        C6H103OOH1        C6H103OOH2        NC6D1KET34        NC6D1KET35        NC6D1KET36        NC6D1KET43        NC6D1KET45        
NC6D1KET46        NC6D1KET53        NC6D1KET54        NC6D1KET56        NC6D1KET63        NC6D1KET64        NC6D1KET65        NC6D2KET45        
NC6D2KET46        NC6D2KET54        NC6D2KET56        NC6D2KET64        NC6D2KET65        NC6D3KET12        NC6D3KET21        NC5H11CO          
NC5H10CHO         NC5H10CHO         NC5H10CHO         NC5H10CHO         NC5H10CHO         C6H10D13          C6H10D24          C6H101            
C6H9              H15DE25DM         H15DE25DM         H15DE25DM         H15DE25DM         H15DE25DM         H15DE2M           IC4H7CHO          
LXC6H4            CXC6H4            C6H3              C6H2              C6H6              FULVENE           C6H5              C6H5OO            
C6H5OOH           C6H5OH            C6H5O             C6H4OH            OXC6H4O2          PXC6H4O2          PXC6H3O2          C5H5OH            
C5H5O             C5H4OH            C5H4O             CJVCCVCCVO        CVCCVCCJVO        C6H5CH3           C6H5CH2           C6H4CH3           
BZCOOH            C6H5CH2OO         C6H5CHO           C6H5CO            HOC6H4CH3         HOC6H4CH2         OC6H4CH3          OCH3C6H4O         
HOC6H4CH2OOH      HOC6H4CH2OO       HOC6H4CH2O        HOC6H4CHO         HOC6H4CO          C6H5CH2OH         C6H5CHOH          C6H5CH2O          
C6H5C2H5          C6H5CHCH3         C6H5CH2CH2        C6H5C2H3          C6H5CCH2          C6H5CHCH          C14H14            C14H13            
C14H12            C14H11            C14H13OOH         C14H13OO          C14H12OOH         C14H12O2H         C14H11O           C14H13O           
C14H12O           OXO2C6H4CH3       OC6H4CH2          PXO2C6H4CH3       PXOC6H4CH3        MXO2C6H4CH3       MXOC6H4CH3        CHOCCH3C3H3CO1    
C6H5CHOOCH3       C6H5CH2CH2OO      C7H6              C7H5              IND               C10H9             C10H10            C5H5CH3           
C9H7              C9H6O             NAPH              NAPH              NAPHV             NAPHO             C6H5C3H5          DMCPD             
DMCPDR            OXXYL             PXXYL             T124MBZ           T135MBZ           CH3C6H4CH2O       OXCH3C6H4CH2OO    OXXYLCH2O         
OXXYLCH2OO        PXCH3C6H4CH2OO    PXXYLCH2O         PXXYLCH2OO        CH3C6H3CH3        CH3C6H4CHO        CH3C6H4CO         HOCH3C6H3CH3      
OXCH2TOLCH2OOH    OCH3C6H3CH3       OXCH3C6H4CH2      OXCH3C6H4CH2OOH   OXXYLCH2          OXXYLCH2OOH       OXXYLCHO          OXXYLCO           
PXCH3C6H4CH2      PXCH3C6H4CH2OOH   PCHOTOLCH2        PXXYLCH2          PXXYLCH2OOH       PXXYLCHO          PXXYLCO           C3Y12             
END
REACTIONS
H2+M<=>2H+M                              4.577e+19   -1.400 104400.00
HE/0.83/ H2/2.50/ H2O/12.00/ CO/1.90/ CO2/3.80/ CH4/2.00/ C2H6/3.00/ 
H2+O<=>H+OH                              5.080e+04    2.670   6292.00
H2+OH<=>H+H2O                            4.380e+13    0.000   6990.00
2O+M<=>O2+M                              6.165e+15   -0.500      0.00
AR/0.83/ HE/0.83/ H2/2.50/ H2O/12.00/ CO/1.90/ CO2/3.80/ CH4/2.00/ C2H6/3.00/ 
O2+H<=>O+OH                              1.040e+14    0.000  15286.00
H+OH+M<=>H2O+M                           3.500e+22   -2.000      0.00
AR/0.38/ H2/0.73/ H2O/3.65/ CH4/2.00/ C2H6/3.00/ 
O+H2O<=>2OH                              6.700e+07    1.704  14986.80
O+H+M<=>OH+M                             4.714e+18   -1.000      0.00
AR/0.75/ HE/0.75/ H2/2.50/ H2O/12.00/ CO/1.50/ CO2/2.00/ CH4/2.00/ C2H6/3.00/ 
H+O+M<=>OHV+M                            1.500e+13    0.000   5975.00
AR/0.35/ N2/0.40/ O2/0.40/ H2O/6.50/ 
OHV+H2O<=>OH+H2O                         5.930e+12    0.500   -860.00
OHV+H2<=>OH+H2                           2.950e+12    0.500   -444.00
OHV+N2<=>OH+N2                           1.080e+11    0.500  -1242.00
OHV+OH<=>2OH                             6.010e+12    0.500   -764.00
OHV+H<=>OH+H                             1.310e+12    0.500   -167.00
OHV+AR<=>OH+AR                           1.690e+12    0.000   4135.00
OHV<=>OH                                 1.450e+06    0.000      0.00
OHV+O2<=>OH+O2                           2.100e+12    0.500   -478.00
OHV+CO2<=>OH+CO2                         2.750e+12    0.500   -968.00
OHV+CO<=>OH+CO                           3.230e+12    0.500   -787.00
OHV+CH4<=>OH+CH4                         3.360e+12    0.500   -635.00
H2O2(+M)<=>2OH(+M)                       2.000e+12    0.900  48749.00
N2/1.50/ HE/0.65/ H2/3.70/ O2/1.20/ H2O/7.65/ H2O2/7.70/ CO/2.80/ CO2/1.60/ 
     LOW  /  2.490e+24   -2.300  48749.00 /
!     FCCHECK/    0.57     1e-30   0.43     1e+30      0         0
     TROE/    0.43    1e-30     1e+30        /
H2O2+H<=>H2O+OH                          2.410e+13    0.000   3970.00
H2O2+H<=>H2+HO2                          2.150e+10    1.000   6000.00
H2O2+O<=>OH+HO2                          9.550e+06    2.000   3970.00
H2O2+OH<=>H2O+HO2                        1.740e+12    0.000    318.00
     DUPLICATE
H2O2+OH<=>H2O+HO2                        7.590e+13    0.000   7269.00
     DUPLICATE
HO2+H<=>2OH                              7.079e+13    0.000    295.00
HO2+H<=>H2+O2                            1.140e+10    1.083    553.78
HO2+O<=>OH+O2                            3.250e+13    0.000      0.00
OH+HO2<=>H2O+O2                          7.000e+12    0.000  -1092.96
     DUPLICATE
OH+HO2<=>H2O+O2                          4.500e+14    0.000  10929.60
     DUPLICATE
2HO2<=>H2O2+O2                           1.000e+14    0.000  11040.88
     DUPLICATE
2HO2<=>H2O2+O2                           1.900e+11    0.000  -1408.92
     DUPLICATE
H+O2(+M)<=>HO2(+M)                       4.650e+12    0.440      0.00
AR/0.50/ HE/0.64/ H2/1.30/ H2O/10.00/ CO/1.90/ CO2/3.80/ CH4/2.00/ C2H6/3.00/ 
     LOW  /  1.737e+19   -1.230      0.00 /
     TROE/    0.67    1e-30     1e+30     1e+30 /
CO+O(+M)<=>CO2(+M)                       1.362e+10    0.000   2384.00
AR/0.70/ HE/0.70/ H2/2.00/ H2O/12.00/ CO/1.75/ CO2/3.60/ 
     LOW  /  1.173e+24   -2.790   4191.00 /
!     FCCHECK/       0         0      0         0      1         0
     TROE/       1     1.00 10000000.00 10000000.00 /
CO+OH<=>CO2+H                            7.015e+04    2.053   -355.70
     DUPLICATE
CO+OH<=>CO2+H                            5.757e+12   -0.664    331.80
     DUPLICATE
CO+HO2<=>CO2+OH                          1.570e+05    2.180  17940.00
CO+O2<=>CO2+O                            1.119e+12    0.000  47700.00
H+CO2<=>OCHO                             7.500e+13    0.000  29000.00
HOCO<=>CO+OH                             6.300e+32   -5.960  32470.00
PLOG /     0.001 1.550e-08    2.930   8768.00 /
PLOG /     0.003 1.770e+03    0.340  18076.00 /
PLOG /     0.030 2.020e+13   -1.870  22755.00 /
PLOG /     0.099 1.680e+18   -3.050  24323.00 /
PLOG /     0.296 2.500e+24   -4.630  27067.00 /
PLOG /     0.987 4.540e+26   -5.120  27572.00 /
PLOG /     2.961 7.120e+28   -5.600  28535.00 /
PLOG /     9.869 5.480e+29   -5.700  28899.00 /
PLOG /    29.607 9.890e+31   -6.190  30518.00 /
PLOG /    98.690 5.740e+33   -6.530  32068.00 /
PLOG /   296.070 2.610e+33   -6.290  32231.00 /
PLOG /   986.900 6.300e+32   -5.960  32470.00 /
HOCO<=>CO2+H                             1.897e+38   -8.047  34240.00
PLOG /     0.001 4.758e+18   -3.817  17676.00 /
PLOG /     0.003 2.225e+20   -4.149  19037.00 /
PLOG /     0.010 7.564e+21   -4.434  20325.00 /
PLOG /     0.030 9.107e+24   -5.189  22419.00 /
PLOG /     0.099 3.144e+29   -6.376  25233.00 /
PLOG /     0.296 1.150e+32   -7.037  26662.00 /
PLOG /     0.987 1.069e+36   -8.107  29064.00 /
PLOG /     2.961 2.438e+36   -8.153  29336.00 /
PLOG /     9.869 6.663e+35   -7.919  29217.00 /
PLOG /    29.607 1.723e+38   -8.506  31273.00 /
PLOG /    98.690 3.007e+41   -9.290  33966.00 /
PLOG /   296.070 6.767e+36   -7.832  31613.00 /
PLOG /   986.900 1.897e+38   -8.047  34240.00 /
CH3+H(+M)<=>CH4(+M)                      1.270e+16   -0.630    383.00
AR/0.70/ HE/0.70/ H2/2.00/ H2O/6.00/ CO/1.50/ CO2/2.00/ CH4/2.00/ C2H6/3.00/ 
     LOW  /  2.477e+33   -4.760   2440.00 /
     TROE/   0.783       74      2941      6964 /
CH4+H<=>CH3+H2                           6.140e+05    2.500   9587.00
CH4+O<=>CH3+OH                           1.020e+09    1.500   8600.00
CH4+OH<=>CH3+H2O                         5.830e+04    2.600   2190.00
CH4+HO2<=>CH3+H2O2                       1.412e+01    3.740  21010.00
CH4+CH3O2<=>CH3+CH3O2H                   9.600e-01    3.770  17810.00
CH3+HO2<=>CH4+O2                         1.160e+05    2.230  -3022.00
CH4+CH2<=>2CH3                           2.460e+06    2.000   8270.00
CH2(S)+N2<=>CH2+N2                       1.500e+13    0.000    600.00
CH2(S)+AR<=>CH2+AR                       9.000e+12    0.000    600.00
CH2(S)+H2O<=>CH2+H2O                     3.000e+13    0.000      0.00
CH2(S)+CO<=>CH2+CO                       9.000e+12    0.000      0.00
CH2(S)+CO2<=>CH2+CO2                     7.000e+12    0.000      0.00
CH2(S)+O2=>H+OH+CO                       2.800e+13    0.000      0.00
CH2(S)+O2<=>CO+H2O                       1.200e+13    0.000      0.00
CH2(S)+O<=>CO+H2                         1.500e+13    0.000      0.00
CH2(S)+O<=>HCO+H                         1.500e+13    0.000      0.00
CH2(S)+H2<=>CH3+H                        7.000e+13    0.000      0.00
CH2(S)+H<=>CH+H2                         3.000e+13    0.000      0.00
CH2(S)+OH<=>CH2O+H                       3.000e+13    0.000      0.00
CH2(S)+CO2<=>CH2O+CO                     1.400e+13    0.000      0.00
CH2+H(+M)<=>CH3(+M)                      2.500e+16   -0.800      0.00
AR/0.70/ HE/0.70/ H2/2.00/ H2O/6.00/ CO/1.50/ CO2/2.00/ CH4/2.00/ C2H6/3.00/ 
     LOW  /  3.200e+27   -3.140   1230.00 /
     TROE/    0.68       78      1995      5590 /
CH2+O2<=>HCO+OH                          1.060e+13    0.000   1500.00
CH2+O2=>CO2+2H                           2.640e+12    0.000   1500.00
CH2+O=>CO+2H                             5.000e+13    0.000      0.00
CH2+H<=>CH+H2                            3.000e+13    0.000      0.00
CH2+OH<=>CH+H2O                          1.130e+07    2.000   3000.00