THERMO ALL
   300.000  1000.000  5000.000
C6H5OCH3          000000C   7H   8O   1     G    300.00   5000.00 1393.00      1
 2.03938728E+01 2.09088165E-02-7.22522263E-06 1.12997840E-09-6.59097524E-14    2
-1.85558154E+04-8.62920505E+01-5.40888697E+00 8.73332441E-02-7.39639658E-05    3
 3.20208039E-08-5.56946955E-12-1.02318239E+04 5.00696056E+01                   4
C6H5OCH2          000000C   7H   7O   1     G    300.00   5000.00 1404.00      1
 1.95297801E+01 1.87267777E-02-6.38766571E-06 9.90128481E-10-5.73893448E-14    2
 6.02346737E+03-7.94661634E+01-4.09410014E+00 8.27000306E-02-7.37585370E-05    3
 3.33910070E-08-5.99308538E-12 1.32919235E+04 4.41961425E+01                   4
C6H4OCH3          000000C   7H   7O   1     G    300.00   5000.00 1393.00      1
 1.97505168E+01 1.83115716E-02-6.20791060E-06 9.59313300E-10-5.55152932E-14    2
 1.27725699E+04-7.96884054E+01-4.18508027E+00 8.19866027E-02-7.23324660E-05    3
 3.24873655E-08-5.81172790E-12 2.02749378E+04 4.60541474E+01                   4
HOC6H4OCH3        000000C   7H   8O   2     G    300.00   5000.00 1396.00      1
 2.38189883E+01 1.94351555E-02-6.57880741E-06 1.01576048E-09-5.87524753E-14    2
-4.07113991E+04-1.01087656E+02-4.44360571E+00 9.53051102E-02-8.56500963E-05    3
 3.86601725E-08-6.89669763E-12-3.19709154E+04 4.70600103E+01                   4
HOC6H4OCH2        000000C   7H   7O   2     G    300.00   5000.00 1409.00      1
 2.25052346E+01 1.79780070E-02-6.05542469E-06 9.30745858E-10-5.36327925E-14    2
-1.59639197E+04-9.24486666E+01-3.07258947E+00 9.05504849E-02-8.56531369E-05    3
 4.04568422E-08-7.46682375E-12-8.45746816E+03 4.02136469E+01                   4
OC6H4OCH3         000000C   7H   7O   2     G    300.00   5000.00 1389.00      1
 2.32531016E+01 1.80280694E-02-6.23538632E-06 9.76634738E-10-5.70511874E-14    2
-2.32476473E+04-9.69138526E+01-3.45388083E+00 8.64294764E-02-7.41583302E-05    3
 3.19046752E-08-5.46757433E-12-1.46478297E+04 4.42675671E+01                   4
C8H8O             000000C   8H   8O   1     G    300.00   5000.00 1414.00      1
 2.11072056E+01 2.32608003E-02-7.94085265E-06 1.23184281E-09-7.14468061E-14    2
-1.71377888E+04-9.26994897E+01-1.12134172E+01 1.08321502E-01-9.38886130E-05    3
 4.05828643E-08-6.91621095E-12-7.06495644E+03 7.71629653E+01                   4
C8H7O             000000C   8H   7O   1     G    300.00   5000.00 1415.00      1
 2.09667152E+01 2.06975311E-02-7.02759696E-06 1.08631488E-09-6.28542624E-14    2
 4.87207200E+03-8.95751363E+01-1.06157109E+01 1.06685458E-01-9.69843017E-05    3
 4.36581000E-08-7.69320003E-12 1.44214005E+04 7.53788625E+01                   4
C8H7O             000000C   8H   7O   1     G    300.00   5000.00 1414.00      1
 2.12060340E+01 2.07689425E-02-7.11174701E-06 1.10555618E-09-6.42189461E-14    2
-8.14511077E+02-9.23174430E+01-1.21634394E+01 1.11794918E-01-1.02632200E-04    3
 4.64857658E-08-8.23272763E-12 9.27002476E+03 8.19296114E+01                   4
HOC6H4C2H5        000000C   8H  10O   1     G    300.00   5000.00 1401.00      1
 2.32385961E+01 2.47039297E-02-8.31885791E-06 1.27881842E-09-7.37088145E-14    2
-2.87622749E+04-9.85445539E+01-4.36287991E+00 9.53449314E-02-7.80414708E-05    3
 3.26598714E-08-5.47508824E-12-1.99038201E+04 4.73218583E+01                   4
HOC6H4C2H4        000000C   8H   9O   1     G    300.00   5000.00 1402.00      1
 2.25726154E+01 2.28419432E-02-7.70112596E-06 1.18479282E-09-6.83261183E-14    2
-3.60718390E+03-9.21564163E+01-3.97149212E+00 9.18069363E-02-7.69431901E-05    3
 3.29030287E-08-5.62032074E-12 4.81208076E+03 4.77618934E+01                   4
CH3C6H4OCH3       000000C   8H  10O   1     G    300.00   5000.00 1390.00      1
 2.28987853E+01 2.57645011E-02-8.85080215E-06 1.37879998E-09-8.02057157E-14    2
-2.38370876E+04-9.75854705E+01-3.78203348E+00 9.01065160E-02-6.86742138E-05    3
 2.68915016E-08-4.28245421E-12-1.48028548E+04 4.49448230E+01                   4
CH3C6H4OCH2       000000C   8H   9O   1     G    300.00   5000.00 1402.00      1
 2.19320611E+01 2.37525615E-02-8.08851911E-06 1.25229366E-09-7.25226103E-14    2
 7.78178451E+02-9.08800845E+01-2.40051606E+00 8.52209896E-02-6.82103557E-05    3
 2.81890609E-08-4.70598579E-12 8.71007166E+03 3.80660567E+01                   4
CH2C6H4OCH3       000000C   8H   9O   1     G    300.00   5000.00 1391.00      1
 2.39276824E+01 2.28070518E-02-7.92985169E-06 1.24510705E-09-7.28199051E-14    2
-5.32326370E+03-1.03645858E+02-3.44967088E+00 9.23107726E-02-7.69334125E-05    3
 3.29120379E-08-5.68689346E-12 3.63252327E+03 4.14272943E+01                   4
OOC6H4OCH3        000000C   7H   7O   3     G    300.00   5000.00 1388.00      1
 2.25595561E+01 2.16725745E-02-7.59038265E-06 1.19721412E-09-7.02276671E-14    2
-1.28647573E+04-8.90346972E+01-2.00336231E+00 8.88167604E-02-8.13145296E-05    3
 3.89153090E-08-7.46892479E-12-5.11093000E+03 3.97587642E+01                   4
HOC6H4OCH2OO      000000C   7H   7O   4     G    300.00   5000.00 1402.00      1
 2.80934181E+01 1.87277038E-02-6.49592949E-06 1.01842036E-09-5.95025363E-14    2
-3.79964998E+04-1.17355786E+02-4.45625025E+00 1.11436528E-01-1.09086801E-04    3
 5.25757356E-08-9.85746438E-12-2.84216470E+04 5.14403239E+01                   4
C6H5OCH2OO        000000C   7H   7O   3     G    300.00   5000.00 1398.00      1
 2.52813579E+01 1.91740455E-02-6.69088315E-06 1.05318955E-09-6.17047547E-14    2
-1.60651114E+04-1.05273491E+02-5.62937924E+00 1.04085243E-01-9.76868099E-05    3
 4.56386549E-08-8.37935800E-12-6.64512354E+03 5.61586897E+01                   4
OXOOC6H4OH        000000C   6H   5O   3     G    300.00   5000.00 1397.00      1
 2.16324308E+01 1.50261436E-02-5.25144851E-06 8.27405845E-10-4.85072717E-14    2
-1.64553784E+04-8.74203920E+01-9.30906979E-01 7.50303918E-02-6.74098616E-05    3
 3.03365683E-08-5.40657955E-12-9.39383818E+03 3.10977043E+01                   4
PXOOC6H4OH        000000C   6H   5O   3     G    300.00   5000.00 1404.00      1
 2.10061747E+01 1.48418784E-02-5.03526291E-06 7.78208632E-10-4.50309345E-14    2
-1.50019846E+04-8.54300659E+01-2.94063553E+00 8.12924967E-02-7.63029952E-05    3
 3.54626677E-08-6.44238680E-12-7.84148295E+03 3.92768939E+01                   4
CH3C6H4OCH2OO     000000C   8H   9O   3     G    300.00   5000.00 1396.00      1
 2.76880205E+01 2.42111858E-02-8.39875610E-06 1.31675575E-09-7.69314121E-14    2
-2.13142534E+04-1.15621908E+02-3.94078056E+00 1.06647963E-01-9.21966025E-05    3
 4.04762406E-08-7.10221381E-12-1.12269063E+04 5.11439362E+01                   4
C6H5CYCH2O        000000C   7H   7O   1     G    300.00   5000.00 1402.00      1
 1.91923903E+01 1.99832445E-02-6.84837707E-06 1.06493580E-09-6.18638645E-14    2
 1.07135098E+04-8.01938374E+01-5.76102318E+00 8.61923944E-02-7.51548526E-05    3
 3.33118351E-08-5.87864067E-12 1.85278620E+04 5.09131733E+01                   4
CH3C6H4CYCH2O     000000C   8H   9O   1     G    300.00   5000.00 1400.00      1
 2.09828421E+01 2.58300368E-02-8.80342968E-06 1.36362157E-09-7.89915086E-14    2
 5.73989469E+03-8.80915698E+01-4.41651363E+00 9.07414913E-02-7.35234368E-05    3
 3.10856456E-08-5.33261303E-12 1.39890160E+04 4.63165461E+01                   4
HOC6H4CYCH2O      000000C   7H   7O   2     G    300.00   5000.00 1411.00      1
 2.19976808E+01 1.92971055E-02-6.43123707E-06 9.81629697E-10-5.62952709E-14    2
-1.11439969E+04-9.20837282E+01-4.85911819E+00 9.45943557E-02-8.78284917E-05    3
 4.07970227E-08-7.41817991E-12-3.20429683E+03 4.74787619E+01                   4
C6H5OCH2OOH       000000C   7H   8O   3     G    300.00   5000.00 1400.00      1
 2.58021341E+01 2.10022182E-02-7.26016674E-06 1.13566603E-09-6.62488793E-14    2
-3.30662333E+04-1.08699426E+02-6.47152568E+00 1.10485866E-01-1.03912003E-04    3
 4.87643267E-08-8.98414024E-12-2.33229253E+04 5.95403954E+01                   4
HOC6H4OCH2OOH     000000C   7H   8O   4     G    300.00   5000.00 1404.00      1
 2.87842482E+01 2.02495865E-02-6.92661693E-06 1.07605388E-09-6.24771194E-14    2
-5.50521867E+04-1.21712339E+02-5.45211464E+00 1.18426880E-01-1.15987739E-04    3
 5.59572688E-08-1.04878325E-11-4.50743528E+04 5.55498494E+01                   4
CH3C6H4OCH2OOH    000000C   8H  10O   3     G    300.00   5000.00 1398.00      1
 2.82183755E+01 2.60230269E-02-8.96080235E-06 1.39795157E-09-8.13953512E-14    2
-3.83187191E+04-1.19100714E+02-4.78238320E+00 1.13042024E-01-9.84018646E-05    3
 4.35818105E-08-7.70115097E-12-2.79047177E+04 5.45237801E+01                   4
C5H3O             000000C   5H   3O   1     G    300.00   5000.00 1401.00      1
 1.29591933E+01 1.02293393E-02-3.53287746E-06 5.52201896E-10-3.21926864E-14    2
 3.17665892E+04-4.38962623E+01-2.04669181E+00 5.20908055E-02-4.90700703E-05    3
 2.31483526E-08-4.28871558E-12 3.62791216E+04 3.42501989E+01                   4
HOC6H4C2H4        000000C   8H   9O   1     G    300.00   5000.00 1400.00      1
 2.34117347E+01 2.24617271E-02-7.55225345E-06 1.15991128E-09-6.68169255E-14    2
-1.11642027E+04-9.98259851E+01-2.26199952E+00 8.84141554E-02-7.29063784E-05    3
 3.06919837E-08-5.16930289E-12-2.95123843E+03 3.57624548E+01                   4
A2R5              000000C  12H   8          G    300.00   5000.00 1000.00      1
 1.16241070E+01 5.59622320E-02-2.94062870E-05 7.38432070E-09-7.21579440E-13    2
 2.40218482E+04-4.09027413E+01-9.11392579E+00 1.23501012E-01-1.13020833E-04    3
 5.49492025E-08-1.14726629E-11 2.91210023E+04 6.34518170E+01                   4
A2R5              000000C  12H   7          G    300.00   3000.00 1000.00      1
 4.90108932E+00 6.98931618E-02-4.24225860E-05 1.21346296E-08-1.32683710E-12    2
 5.94391141E+04-3.69961351E+00-9.79698705E+00 1.22277188E-01-1.04932443E-04    3
 3.87945689E-08-3.16286990E-12 6.24840178E+04 6.82743647E+01                   4
A2C2H2            000000C  12H   9          G    200.00   6000.00 1000.00      1
 2.44441957E+01 3.26961470E-02-1.18995546E-05 1.93488254E-09-1.16386321E-13    2
 4.52956655E+04-1.05872509E+02-6.46936056E+00 1.16473792E-01-9.42890228E-05    3
 3.90351090E-08-7.69123334E-12 5.40234681E+04 5.46148315E+01                   4
A2C2H3            000000C  12H  10          G    200.00   6000.00 1000.00      1
 2.36421335E+01 3.60544766E-02-1.31138294E-05 2.13119639E-09-1.28115416E-13    2
 1.47132034E+04-1.02728036E+02-6.45894493E+00 1.15014246E-01-8.67386354E-05    3
 3.29058146E-08-6.13661834E-12 2.33840453E+04 5.42994008E+01                   4
A2CHO             000000C  11H   8O   1     G    300.00   3000.00 1000.00      1
-5.55792190E-01 8.73748443E-02-5.61818352E-05 1.67233286E-08-1.88092851E-12    2
 1.03455228E+03 2.63086898E+01-4.87929105E+00 9.83093626E-02-4.54845327E-05    3
-2.01808358E-08 1.77149140E-11 1.63189711E+03 4.72936199E+01                   4
A2CO              000000C  11H   7O   1     G    200.00   6000.00 1000.00      1
 2.27592940E+01 2.95236092E-02-1.08144575E-05 1.76929286E-09-1.06921871E-13    2
 1.06429048E+04-9.54214580E+01-4.13154411E+00 9.92539489E-02-7.52469978E-05    3
 2.90067068E-08-5.75129709E-12 1.84656080E+04 4.51517572E+01                   4
C6H5C2H           000000C   8H   6          G    300.00   3000.00 1000.00      1
 2.40907590E+01 7.82324000E-04 1.14539640E-05-6.16205040E-09 9.33466850E-13    2
 2.74502567E+04-1.04964606E+02-7.84693731E+00 1.05617183E-01-1.35923838E-04    3
 1.01839762E-07-3.25877063E-11 3.58002391E+04 5.68869157E+01                   4
CVCCVCCVO         000000C   5H   6O   1     G    300.00   5000.00 1395.00      1
 1.62682990E+01 1.43327751E-02-4.97440692E-06 7.79901086E-10-4.55587680E-14    2
-1.07932503E+04-6.04235901E+01-1.17506293E+00 6.26012625E-02-5.78258875E-05    3
 2.74480281E-08-5.17809048E-12-5.42543575E+03 3.06955047E+01                   4
NAPHOH            000000C  10H   8O   1     G    300.00   5000.00 1398.00      1
 2.50133964E+01 2.55383970E-02-8.83322079E-06 1.38195723E-09-8.06163262E-14    2
-1.51872524E+04-1.13661734E+02-6.41350655E+00 1.08072258E-01-9.34983218E-05    3
 4.13136053E-08-7.30360693E-12-5.21338485E+03 5.18391078E+01                   4
C9H7O             000000C   9H   7O   1     G    300.00   5000.00 1409.00      1
 2.35895497E+01 2.09352881E-02-7.10825528E-06 1.10005188E-09-6.37397794E-14    2
 1.38897249E+04-9.98745564E+01-6.17245840E+00 9.21181402E-02-7.04151829E-05    3
 2.58343924E-08-3.62623760E-12 2.37792208E+04 5.89107513E+01                   4
OXHOC6H4OH        000000C   6H   6O   2     G    300.00   5000.00 1400.00      1
 1.94796164E+01 1.71809028E-02-5.87910279E-06 9.13339492E-10-5.30238288E-14    2
-4.23668813E+04-8.00820842E+01-3.11039007E+00 7.88344051E-02-7.15033734E-05    3
 3.28572143E-08-5.97648907E-12-3.54443054E+04 3.80328432E+01                   4
OXOC6H4OH         000000C   6H   5O   2     G    300.00   5000.00 1405.00      1
 1.87687364E+01 1.53822906E-02-5.29088263E-06 8.24878470E-10-4.80089077E-14    2
-2.81627601E+04-7.60621096E+01-3.73816553E+00 7.60921631E-02-6.87011161E-05    3
 3.09904933E-08-5.50934283E-12-2.12461217E+04 4.17848041E+01                   4
PXHOC6H4OH        000000C   6H   6O   2     G    300.00   5000.00 1406.00      1
 1.89691794E+01 1.68058871E-02-5.58154830E-06 8.50182830E-10-4.86946473E-14    2
-4.09614557E+04-7.87407907E+01-4.97163624E+00 8.44087912E-02-7.93283964E-05    3
 3.72837930E-08-6.85242632E-12-3.39137830E+04 4.55294735E+01                   4
PXOC6H4OH         000000C   6H   5O   2     G    300.00   5000.00 1407.00      1
 1.86728373E+01 1.52852742E-02-5.21963670E-06 8.09953717E-10-4.69899934E-14    2
-2.50094866E+04-7.53490437E+01-4.12456055E+00 7.70886404E-02-6.99144753E-05    3
 3.15754267E-08-5.60455043E-12-1.80553830E+04 4.38740609E+01                   4
C6H6O             000000C   6H   6O   1     G    300.00   5000.00 1398.00      1
 1.59036713E+01 1.78013991E-02-6.12108521E-06 9.53935313E-10-5.54992080E-14    2
-1.00818721E+04-6.16827813E+01-3.78295265E+00 6.73949119E-02-5.45517149E-05    3
 2.26537091E-08-3.79446033E-12-3.64301457E+03 4.27055399E+01                   4
C6H6O             000000C   6H   6O   1     G    300.00   5000.00 1398.00      1
 1.58032131E+01 1.78999520E-02-6.15814055E-06 9.60048612E-10-5.58688211E-14    2
-1.08799576E+04-6.27035326E+01-3.82141728E+00 6.69524504E-02-5.36176142E-05    3
 2.20162106E-08-3.64950371E-12-4.42417566E+03 4.14904991E+01                   4
C6H6O             000000C   6H   6O   1     G    300.00   5000.00 1392.00      1
 1.90394843E+01 1.58200586E-02-5.59037771E-06 8.87151235E-10-5.22648162E-14    2
 9.38927050E+03-7.84434757E+01-5.18091453E+00 8.18154466E-02-7.65052004E-05    3
 3.60198051E-08-6.70990645E-12 1.69056856E+04 4.83769430E+01                   4
OVCCVCVO          000000C   3H   2O   2     G    300.00   5000.00 1405.00      1
 1.29754391E+01 4.85811912E-03-1.71609606E-06 2.72356216E-10-1.60491714E-14    2
-2.75926906E+04-4.17476181E+01 1.42500218E+00 3.80480755E-02-3.85376023E-05    3
 1.87386556E-08-3.50896646E-12-2.42467128E+04 1.80096036E+01                   4
C4D13KET          000000C   6H   6O   1     G    300.00   5000.00 1398.00      1
 1.63677632E+01 1.72758524E-02-5.90823553E-06 9.17224276E-10-5.32142504E-14    2
 4.72475883E+03-5.99510097E+01-7.58250044E-02 5.90422079E-02-4.74323142E-05    3
 1.99991262E-08-3.43767425E-12 1.01096747E+04 2.71876401E+01                   4
C5H5CH3           000000C   6H   8          G    300.00   5000.00 1398.00      1
 1.50340047E+01 2.04185116E-02-6.97043123E-06 1.08100581E-09-6.26770876E-14    2
 4.35319045E+03-5.84939440E+01-4.51674328E+00 6.78913912E-02-5.13071195E-05    3
 1.99976667E-08-3.16498978E-12 1.09235424E+04 4.58010680E+01                   4
C5H5CH3           000000C   6H   8          G    300.00   5000.00 1397.00      1
 1.49358231E+01 2.07204882E-02-7.12075715E-06 1.10910625E-09-6.44955257E-14    2
 4.20981714E+03-5.80709857E+01-4.70171021E+00 6.89541748E-02-5.31609360E-05    3
 2.13724608E-08-3.51400010E-12 1.07942978E+04 4.65586788E+01                   4
C5H5CH2           000000C   6H   7          G    300.00   5000.00 1397.00      1
 1.60009500E+01 1.74775366E-02-6.04888686E-06 9.46697639E-10-5.52383113E-14    2
 1.89214691E+04-6.37639995E+01-5.03874088E+00 7.30600518E-02-6.36113204E-05    3
 2.84114088E-08-5.08301635E-12 2.55876240E+04 4.69555957E+01                   4
C5H5CH2           000000C   6H   7          G    300.00   5000.00 1398.00      1
 1.61072691E+01 1.73692888E-02-6.00742320E-06 9.39783915E-10-5.48175033E-14    2
 2.18823295E+04-6.43032308E+01-4.77334223E+00 7.24269325E-02-6.28348815E-05    3
 2.79375369E-08-4.97438810E-12 2.84999614E+04 4.56016875E+01                   4
A1C4H5            000000C  10H  10          G    300.00   5000.00 1398.00      1
 2.51177291E+01 2.71079788E-02-9.36415847E-06 1.46361840E-09-8.53182081E-14    2
 1.23876919E+04-1.10389978E+02-6.74138887E+00 1.14310239E-01-1.05691631E-04    3
 5.20576143E-08-1.05632838E-11 2.23198996E+04 5.65088768E+01                   4
C8H6O             000000C   8H   6O   1     G    200.00   6000.00 1000.00      1
 1.61267559E+01 2.42942790E-02-8.82919089E-06 1.43722155E-09-8.65592465E-14    2
-5.70905569E+03-6.40125247E+01-4.90142148E+00 7.43755272E-02-4.43407817E-05    3
 6.32936815E-09 1.47981416E-12 5.79383205E+02 4.68972169E+01                   4
HOC6H4C2H3        000000C   8H   8O   1     G    300.00   5000.00 1402.00      1
 2.22088861E+01 2.15221137E-02-7.34732595E-06 1.13952632E-09-6.60747160E-14    2
-1.40752329E+04-9.28164913E+01-4.07517261E+00 9.34032742E-02-8.56414492E-05    3
 4.12714256E-08-8.13954281E-12-5.96652954E+03 4.47322744E+01                   4
CYC6H7            000000C   6H   7          G    300.00   5000.00 1397.00      1
 1.45807530E+01 1.90472668E-02-6.57818915E-06 1.02815839E-09-5.99380191E-14    2
 1.74041914E+04-5.69878049E+01-6.31362147E+00 7.16680970E-02-5.92387188E-05    3
 2.61855755E-08-4.89962389E-12 2.42993483E+04 5.39513378E+01                   4
CYHX14ENE         000000C   6H   8          G    300.00   5000.00 1370.00      1
 1.90497468E+01 1.84764147E-02-6.63476235E-06 1.06416757E-09-6.31589406E-14    2
 2.98895479E+03-8.65070868E+01-6.49703330E+00 7.48585044E-02-5.38107161E-05    3
 1.95547547E-08-3.09997705E-12 1.21584107E+04 5.18609114E+01                   4
CYHX13ENE         000000C   6H   8          G    300.00   5000.00 1391.00      1
 1.57655741E+01 2.05288746E-02-7.17037109E-06 1.12907526E-09-6.61583621E-14    2
 4.37837864E+03-6.44355831E+01-5.90552167E+00 7.33331795E-02-5.86691750E-05    3
 2.55103112E-08-4.80891617E-12 1.17597310E+04 5.13518061E+01                   4
C5H4CH3           000000C   6H   7          G    300.00   5000.00 1400.00      1
 1.50272937E+01 1.80083785E-02-6.16578517E-06 9.57991706E-10-5.56127818E-14    2
 1.93817415E+04-5.65979232E+01-3.91288831E+00 6.72649774E-02-5.62562950E-05    3
 2.44181559E-08-4.27683233E-12 2.54520537E+04 4.33343548E+01                   4
C5H5OOH           000000C   5H   6O   2     G    300.00   5000.00 1393.00      1
 1.88725697E+01 1.53218790E-02-5.37069273E-06 8.47863240E-10-4.97746160E-14    2
-3.95016113E+02-7.50740750E+01-3.23350440E+00 7.29947105E-02-6.40893297E-05    3
 2.83476562E-08-4.99625237E-12 6.65197479E+03 4.14671190E+01                   4
C5H5OO            000000C   5H   5O   2     G    300.00   5000.00 1387.00      1
 1.86496209E+01 1.29806176E-02-4.57246242E-06 7.24666742E-10-4.26709629E-14    2
 1.65062628E+04-7.32870061E+01-2.46506888E+00 6.67591601E-02-5.77263614E-05    3
 2.48516249E-08-4.25724208E-12 2.33438678E+04 3.84530553E+01                   4
C5H5CH2           000000C   6H   7          G    300.00   5000.00 1402.00      1
 1.51289858E+01 1.78065530E-02-6.07089735E-06 9.40569603E-10-5.44933404E-14    2
 3.14226673E+04-5.67179820E+01-4.48851315E+00 7.03646001E-02-6.11463140E-05    3
 2.74349397E-08-4.92681592E-12 3.75516391E+04 4.62341479E+01                   4
CJVCCVCVO         000000C   4H   3O   1     G    300.00   5000.00 1403.00      1
 1.32052464E+01 6.90241917E-03-2.35053066E-06 3.63820849E-10-2.10624689E-14    2
 2.51017688E+04-4.24833527E+01 6.77796000E-01 4.72170124E-02-5.20464449E-05    3
 2.75983958E-08-5.55068706E-12 2.83789411E+04 2.09300093E+01                   4
OVCCVCCVO         000000C   4H   4O   2     G    300.00   5000.00 1394.00      1
 1.55606251E+01 1.00160664E-02-3.52623062E-06 5.58219798E-10-3.28312450E-14    2
-3.34770690E+04-5.56858972E+01 2.63568435E-01 5.17368641E-02-4.82625488E-05    3
 2.26254297E-08-4.19193081E-12-2.87483617E+04 2.43722030E+01                   4
OVCCVCCJVO        000000C   4H   3O   2     G    300.00   5000.00 1394.00      1
 1.50223935E+01 7.87097174E-03-2.77323288E-06 4.39238238E-10-2.58421938E-14    2
-1.53370088E+04-5.13420340E+01 1.48861249E+00 4.69160041E-02-4.70057301E-05    3
 2.33052690E-08-4.49655195E-12-1.13474729E+04 1.87634370E+01                   4
AR                000000AR  1               G    200.00   6000.00 1000.00      1
 2.50000000E+00 0.00000000E+00 0.00000000E+00 0.00000000E+00 0.00000000E+00    2
-7.45375000E+02 4.37967491E+00 2.50000000E+00 5.48006725E-16-1.59937425E-18    3
 1.86302021E-21-7.34579718E-25-7.45375000E+02 4.37967491E+00                   4
N2                000000N   2               G    200.00   6000.00 1000.00      1
 2.95257637E+00 1.39690040E-03-4.92631603E-07 7.86010195E-11-4.60755204E-15    2
-9.24501840E+02 5.87129010E+00 3.58760040E+00-6.02547100E-04 8.98331257E-07    3
 7.54921682E-10-7.07467604E-13-1.05196456E+03 2.73894037E+00                   4
HE                000000HE  1               G    200.00   6000.00 1000.00      1
 2.50000000E+00 0.00000000E+00 0.00000000E+00 0.00000000E+00 0.00000000E+00    2
-7.45375000E+02 9.28723974E-01 2.50000000E+00 5.48006725E-16-1.59937425E-18    3
 1.86302021E-21-7.34579718E-25-7.45375000E+02 9.28723974E-01                   4
H2                000000H   2               G    200.00   6000.00 1000.00      1
 2.93286575E+00 8.26608026E-04-1.46402364E-07 1.54100414E-11-6.88804800E-16    2
-8.16748424E+02-1.02830684E+00 2.72113605E+00 4.79214245E-03-1.01482243E-05    3
 8.96936949E-09-2.70663102E-12-9.51146702E+02-8.38520919E-01                   4
H                 000000H   1               G    200.00   6000.00 1000.00      1
 2.50000000E+00 0.00000000E+00 0.00000000E+00 0.00000000E+00 0.00000000E+00    2
 2.54736600E+04-4.46682850E-01 2.50000000E+00 5.48006725E-16-1.59937425E-18    3
 1.86302021E-21-7.34579718E-25 2.54736600E+04-4.46682850E-01                   4
O2                000000O   2               G    200.00   6000.00 1000.00      1
 3.66096065E+00 6.56365811E-04-1.41149627E-07 2.05797935E-11-1.29913436E-15    2
-1.21473078E+03 3.41670918E+00 3.65493298E+00-1.91768034E-03 6.68974292E-06    3
-5.89495614E-09 1.66341808E-12-1.05270367E+03 4.17261275E+00                   4
O                 000000O   1               G    200.00   6000.00 1000.00      1
 2.54363697E+00-2.73162486E-05-4.19029520E-09 4.95481845E-12-4.79553694E-16    2
 2.92266155E+04 4.92294637E+00 3.10652772E+00-2.75690396E-03 5.11435812E-06    3
-4.29494187E-09 1.34756569E-12 2.91277009E+04 2.30123591E+00                   4
H2O               000000H   2O   1          G    200.00   6000.00 1000.00      1
 2.67703890E+00 2.97318160E-03-7.73768890E-07 9.44335140E-11-4.26899910E-15    2
-2.98862931E+04 6.88211912E+00 4.23947087E+00-2.38193734E-03 7.53145778E-06    3
-6.70039089E-09 2.27801570E-12-3.02973253E+04-1.01390268E+00                   4
OH                000000H   1O   1          G    200.00   6000.00 1000.00      1
 2.83853033E+00 1.10741289E-03-2.94000209E-07 4.20698729E-11-2.42289890E-15    2
 3.69788084E+03 5.84502510E+00 3.98454038E+00-2.33807954E-03 4.43232593E-06    3
-3.65814533E-09 1.27094854E-12 3.36955446E+03-7.39403338E-02                   4
OHV               000000H   1O   1          G    300.00   5000.00 1000.00      1
 2.88273000E+00 1.01397430E-03-2.27687700E-07 2.17468300E-11-5.12630500E-16    2
 5.03014063E+04 5.59571605E+00 3.63725927E+00 1.85145041E-04-1.67631272E-06    3
 2.38736757E-09-8.43208359E-13 5.00213006E+04 1.35888797E+00                   4
H2O2              000000H   2O   2          G    200.00   6000.00 1000.00      1
 4.57977305E+00 4.05326003E-03-1.29844730E-06 1.98211400E-10-1.13968792E-14    2
-1.80024180E+04 6.70111916E-01 3.82819116E+00 3.27308040E-03 5.58298816E-06    3
-8.21779307E-09 3.05493365E-12-1.76638231E+04 5.24006979E+00                   4
HO2               000000H   1O   2          G    200.00   5000.00 1000.00      1
 4.17228741E+00 1.88117627E-03-3.46277286E-07 1.94657549E-11 1.76256905E-16    2
 3.51666066E+01 2.96215519E+00 3.87761522E+00-1.15984888E-03 1.06552565E-05    3
-1.16818377E-08 4.03564321E-12 3.01405897E+02 5.42950452E+00                   4
CO                000000C   1O   1          G    200.00   6000.00 1000.00      1
 3.04848590E+00 1.35172810E-03-4.85794050E-07 7.88536440E-11-4.69807460E-15    2
-1.42665653E+04 6.01661349E+00 3.62539680E+00-9.98431348E-04 2.15241879E-06    3
-4.54737308E-10-3.36071418E-13-1.43481284E+04 3.32321416E+00                   4
CO2               000000C   1O   2          G    200.00   6000.00 1000.00      1
 4.63651110E+00 2.74145690E-03-9.95897590E-07 1.60386660E-10-9.16198570E-15    2
-4.90227279E+04-1.93254510E+00 2.13417064E+00 1.08680437E-02-1.26348269E-05    3
 9.06784660E-09-2.90193901E-12-4.83523474E+04 1.07999292E+01                   4
HOCO              000000C   1H   1O   2     G    200.00   6000.00 1000.00      1
 5.39206152E+00 4.11221455E-03-1.48194900E-06 2.39875460E-10-1.43903104E-14    2
-2.38560532E+04-2.23030191E+00 2.44953648E+00 1.16230132E-02-8.40161014E-06    3
 3.31690186E-09-7.40029211E-13-2.29865026E+04 1.32007071E+01                   4
CH4               000000C   1H   4          G    200.00   6000.00 1000.00      1
 1.65326226E+00 1.00263099E-02-3.31661238E-06 5.36483138E-10-3.14696758E-14    2
-1.00025582E+04 9.91266257E+00 4.42928773E+00-7.57130227E-03 3.13220248E-05    3
-2.70520566E-08 7.74001958E-12-1.01831529E+04-1.73184085E+00                   4
CH3               000000C   1H   3          G    200.00   6000.00 1000.00      1
 2.97812060E+00 5.79785200E-03-1.97558000E-06 3.07297900E-10-1.79174160E-14    2
 1.65117443E+04 4.72489001E+00 3.42887997E+00 4.05838229E-03-1.94455708E-07    3
 1.60420977E-10-3.63454443E-13 1.64428383E+04 2.59540542E+00                   4
CH2               000000C   1H   2          G    200.00   6000.00 1000.00      1
 3.14631886E+00 3.03671259E-03-9.96474439E-07 1.50483580E-10-8.57335515E-15    2
 4.60431621E+04 4.72547131E+00 3.52301145E+00 2.92026376E-03-2.64412884E-06    3
 2.28836847E-09-7.59047619E-13 4.58895357E+04 2.53863735E+00                   4
CH2(S)            000000C   1H   2          G    200.00   6000.00 1000.00      1
 3.13501686E+00 2.89593926E-03-8.16668090E-07 1.13572697E-10-6.36262835E-15    2
 5.05055864E+04 4.06196532E+00 4.03616369E+00-1.00131275E-03 4.26564277E-06    3
-1.96388030E-09-1.51153083E-14 5.03800757E+04-1.12167372E-01                   4
C                 000000C   1               G    200.00   6000.00 1000.00      1
 2.60558300E+00-1.95934340E-04 1.06737220E-07-1.64239400E-11 8.18705800E-16    2
 8.54120178E+04 4.19268429E+00 2.52601592E+00-8.27207690E-05 3.49594161E-08    3
 1.05759277E-10-8.32331977E-14 8.54451686E+04 4.64527478E+00                   4
CH                000000C   1H   1          G    200.00   6000.00 1000.00      1
 2.52093690E+00 1.76536390E-03-4.61476600E-07 5.92896750E-11-3.34745010E-15    2
 7.09455192E+04 7.40383369E+00 3.61755548E+00-7.57048805E-04 1.47436244E-06    3
-6.31624598E-10 1.77521913E-13 7.06013820E+04 1.56824151E+00                   4
CHV               000000C   1H   1          G    300.00   5000.00 1000.00      1
 2.19622300E+00 2.34038100E-03-7.05820100E-07 9.00758200E-11-3.85504000E-15    2
 1.04351780E+05 9.17836903E+00 3.20018589E+00 2.07300406E-03-5.13478322E-06    3
 5.73428132E-09-1.95568337E-12 1.03937141E+05 3.33165283E+00                   4
CH3O2H            000000C   1H   4O   2     G    200.00   6000.00 1000.00      1
 7.76538058E+00 8.61499712E-03-2.98006935E-06 4.68638071E-10-2.75339255E-14    2
-1.82853463E+04-1.43855996E+01 1.61093013E+00 2.84528553E-02-2.67696727E-05    3
 1.31520721E-08-2.60477228E-12-1.67753680E+04 1.66012797E+01                   4
CH3O2             000000C   1H   3O   2     G    300.00   5000.00 1374.00      1
 6.47970487E+00 7.44401080E-03-2.52348555E-06 3.89577296E-10-2.25182399E-14    2
-1.56126261E+03-8.19279530E+00 1.91909036E+00 1.57447578E-02-7.28563045E-06    3
 1.16347941E-09 1.62772988E-14 2.59648358E+02 1.71460636E+01                   4
CH2O2H            000000C   1H   3O   2     G    300.00   5000.00 1410.00      1
 9.24697852E+00 4.60845541E-03-1.53501472E-06 2.34434830E-10-1.34573106E-14    2
 4.11688270E+03-2.11483917E+01 2.84073964E+00 2.12956207E-02-1.83220005E-05    3
 8.00644402E-09-1.41385169E-12 6.12878550E+03 1.25852162E+01                   4
CH3OH             000000C   1H   4O   1     G    200.00   6000.00 1000.00      1
 3.52726795E+00 1.03178783E-02-3.62892944E-06 5.77448016E-10-3.42182632E-14    2
-2.59897276E+04 5.18179782E+00 4.31249923E+00-4.90891226E-03 3.58657302E-05    3
-3.58724247E-08 1.13625541E-11-2.54933364E+04 4.53783755E+00                   4
CH3O              000000C   1H   3O   1     G    200.00   6000.00 1000.00      1
 4.75779238E+00 7.44142474E-03-2.69705176E-06 4.38090504E-10-2.63537098E-14    2
 3.90451676E+02-1.95347084E+00 2.44928090E+00 7.87836022E-03 6.39420697E-06    3
-9.82118749E-09 3.01324155E-12 1.40697628E+03 1.16704572E+01                   4
CH2OH             000000C   1H   3O   1     G    200.00   6000.00 1000.00      1
 5.09314370E+00 5.94761260E-03-2.06497460E-06 3.23008173E-10-1.88125902E-14    2
-4.02569149E+03-1.83783569E+00 3.61841875E+00 5.92565109E-03 6.55621414E-06    3
-1.09545850E-08 4.13427828E-12-3.42493526E+03 6.78149551E+00                   4
CH2O              000000C   1H   2O   1     G    200.00   6000.00 1000.00      1