THERMO ALL
	300.00  1000.00  5000.000
N2                000000N   2               G    300.00   5000.00 1000.00      1
 2.92664000E+00 1.48797680E-03-5.68476000E-07 1.00970380E-10-6.75335100E-15    2
-9.22797700E+02 5.98052800E+00 3.29867700E+00 1.40824040E-03-3.96322200E-06    3
 5.64151500E-09-2.44485400E-12-1.02089990E+03 3.95037200E+00                   4
AR                000000AR  1               G    300.00   5000.00 1000.00      1
 2.50000000E+00 0.00000000E+00 0.00000000E+00 0.00000000E+00 0.00000000E+00    2
-7.45375000E+02 4.36600000E+00 2.50000000E+00 0.00000000E+00 0.00000000E+00    3
 0.00000000E+00 0.00000000E+00-7.45375000E+02 4.36600000E+00                   4
O2                000000O   2               G    300.00   5000.00 1000.00      1
 3.28253784E+00 1.48308754E-03-7.57966669E-07 2.09470555E-10-2.16717794E-14    2
-1.08845772E+03 5.45323129E+00 3.78245636E+00-2.99673416E-03 9.84730201E-06    3
-9.68129509E-09 3.24372837E-12-1.06394356E+03 3.65767573E+00                   4
O                 000000O   1               G    300.00   5000.00 1000.00      1
 2.56942078E+00-8.59741137E-05 4.19484589E-08-1.00177799E-11 1.22833691E-15    2
 2.92175791E+04 4.78433864E+00 3.16826710E+00-3.27931884E-03 6.64306396E-06    3
-6.12806624E-09 2.11265971E-12 2.91222592E+04 2.05193346E+00                   4
OH                000000O   1H   1          G    300.00   5000.00 1000.00      1
 2.86472886E+00 1.05650448E-03-2.59082758E-07 3.05218674E-11-1.33195876E-15    2
 3.71885774E+03 5.70164073E+00 4.12530561E+00-3.22544939E-03 6.52764691E-06    3
-5.79853643E-09 2.06237379E-12 3.38153812E+03-6.90432960E-01                   4
H2O               000000O   1H   2          G    300.00   5000.00 1000.00      1
 3.03399249E+00 2.17691804E-03-1.64072518E-07-9.70419870E-11 1.68200992E-14    2
-3.00042971E+04 4.96677010E+00 4.19864056E+00-2.03643410E-03 6.52040211E-06    3
-5.48797062E-09 1.77197817E-12-3.02937267E+04-8.49032208E-01                   4
HE                000000HE  1               G    300.00   5000.00 1000.00      1
 2.50000000E+00 0.00000000E+00 0.00000000E+00 0.00000000E+00 0.00000000E+00    2
-7.45375000E+02 9.15348900E-01 2.50000000E+00 0.00000000E+00 0.00000000E+00    3
 0.00000000E+00 0.00000000E+00-7.45375000E+02 9.15348800E-01                   4
HO2               000000O   2H   1          G    300.00   5000.00 1000.00      1
 4.17228741E+00 1.88117627E-03-3.46277286E-07 1.94657549E-11 1.76256905E-16    2
 3.10206839E+01 2.95767672E+00 4.30179807E+00-4.74912097E-03 2.11582905E-05    3
-2.42763914E-08 9.29225225E-12 2.64018485E+02 3.71666220E+00                   4
H2O2              000000O   2H   2          G    300.00   5000.00 1000.00      1
 4.16500285E+00 4.90831694E-03-1.90139225E-06 3.71185986E-10-2.87908305E-14    2
-1.78617877E+04 2.91615662E+00 4.27611269E+00-5.42822417E-04 1.67335701E-05    3
-2.15770813E-08 8.62454363E-12-1.77025821E+04 3.43505074E+00                   4
CO                000000C   1O   1          G    300.00   5000.00 1000.00      1
 2.71518561E+00 2.06252743E-03-9.98825771E-07 2.30053008E-10-2.03647716E-14    2
-1.41518724E+04 7.81868772E+00 3.57953347E+00-6.10353680E-04 1.01681433E-06    3
 9.07005884E-10-9.04424499E-13-1.43440860E+04 3.50840928E+00                   4
CO2               000000C   1O   2          G    300.00   5000.00 1000.00      1
 3.85746029E+00 4.41437026E-03-2.21481404E-06 5.23490188E-10-4.72084164E-14    2
-4.87591660E+04 2.27163806E+00 2.35677352E+00 8.98459677E-03-7.12356269E-06    3
 2.45919022E-09-1.43699548E-13-4.83719697E+04 9.90105222E+00                   4
HCO               000000C   1O   1H   1     G    300.00   5000.00 1000.00      1
 2.77217438E+00 4.95695526E-03-2.48445613E-06 5.89161778E-10-5.33508711E-14    2
 4.01191815E+03 9.79834492E+00 4.22118584E+00-3.24392532E-03 1.37799446E-05    3
-1.33144093E-08 4.33768865E-12 3.83956496E+03 3.39437243E+00                   4
C                 000000C   1               G    300.00   5000.00 1000.00      1
 2.49266888E+00 4.79889284E-05-7.24335020E-08 3.74291029E-11-4.87277893E-15    2
 8.54512953E+04 4.80150373E+00 2.55423955E+00-3.21537724E-04 7.33792245E-07    3
-7.32234889E-10 2.66521446E-13 8.54438832E+04 4.53130848E+00                   4
CH                000000C   1H   1          G    300.00   5000.00 1000.00      1
 2.87846473E+00 9.70913681E-04 1.44445655E-07-1.30687849E-10 1.76079383E-14    2
 7.10124364E+04 5.48497999E+00 3.48981665E+00 3.23835541E-04-1.68899065E-06    3
 3.16217327E-09-1.40609067E-12 7.07972934E+04 2.08401108E+00                   4
T-CH2             000000C   1H   2          G    300.00   5000.00 1000.00      1
 2.87410113E+00 3.65639292E-03-1.40894597E-06 2.60179549E-10-1.87727567E-14    2
 4.62636040E+04 6.17119324E+00 3.76267867E+00 9.68872143E-04 2.79489841E-06    3
-3.85091153E-09 1.68741719E-12 4.60040401E+04 1.56253185E+00                   4
CH3               000000C   1H   3          G    300.00   5000.00 1000.00      1
 2.97812060E+00 5.79785200E-03-1.97558000E-06 3.07297900E-10-1.79174160E-14    2
 1.65095130E+04 4.72247990E+00 3.65717970E+00 2.12659790E-03 5.45838830E-06    3
-6.61810030E-09 2.46570740E-12 1.64227160E+04 1.67353540E+00                   4
CH2O              000000C   1O   1H   2     G    300.00   5000.00 1000.00      1
 1.76069008E+00 9.20000082E-03-4.42258813E-06 1.00641212E-09-8.83855640E-14    2
-1.39958323E+04 1.36563230E+01 4.79372315E+00-9.90833369E-03 3.73220008E-05    3
-3.79285261E-08 1.31772652E-11-1.43089567E+04 6.02812900E-01                   4
HCCO              000000C   2O   1H   1     G    300.00   5000.00 1000.00      1
 5.62820580E+00 4.08534010E-03-1.59345470E-06 2.86260520E-10-1.94078320E-14    2
 1.93272150E+04-3.93025950E+00 2.25172140E+00 1.76550210E-02-2.37291010E-05    3
 1.72757590E-08-5.06648110E-12 2.00594490E+04 1.24904170E+01                   4
C2H                     C   2H   1          G   100.000  5000.000  816.49      1
 3.82807163E+00 3.61965742E-03-1.29285471E-06 2.05742718E-10-1.23512537E-14    2
 6.70814268E+04 2.94450182E+00 3.11938953E+00 1.18597671E-02-2.51910027E-05    3
 2.68712464E-08-1.03670814E-11 6.70382145E+04 5.24649778E+00                   4
CH2CO             000000C   2O   1H   2     G    300.00   5000.00 1000.00      1
 4.51129732E+00 9.00359745E-03-4.16939635E-06 9.23345882E-10-7.94838201E-14    2
-7.55105311E+03 6.32247205E-01 2.13583630E+00 1.81188721E-02-1.73947474E-05    3
 9.34397568E-09-2.01457615E-12-7.04291804E+03 1.22156480E+01                   4
S-CH2             000000C   1H   2          G    300.00   5000.00 1000.00      1
 2.29203842E+00 4.65588637E-03-2.01191947E-06 4.17906000E-10-3.39716365E-14    2
 5.09259997E+04 8.62650169E+00 4.19860411E+00-2.36661419E-03 8.23296220E-06    3
-6.68815981E-09 1.94314737E-12 5.04968163E+04-7.69118967E-01                   4
CH3OH             000000C   1O   1H   4     G    300.00   5000.00 1000.00      1
 1.78970791E+00 1.40938292E-02-6.36500835E-06 1.38171085E-09-1.17060220E-13    2
-2.53748747E+04 1.45023623E+01 5.71539582E+00-1.52309129E-02 6.52441155E-05    3
-7.10806889E-08 2.61352698E-11-2.56427656E+04-1.50409823E+00                   4
CH2OH             000000C   1O   1H   3     G    300.00   5000.00 1000.00      1
 3.69266569E+00 8.64576797E-03-3.75101120E-06 7.87234636E-10-6.48554201E-14    2
-3.24250627E+03 5.81043215E+00 3.86388918E+00 5.59672304E-03 5.93271791E-06    3
-1.04532012E-08 4.36967278E-12-3.19391367E+03 5.47302243E+00                   4
CH3O              000000C   1O   1H   3     G    300.00   5000.00 1000.00      1
 3.77079900E+00 7.87149700E-03-2.65638400E-06 3.94443100E-10-2.11261600E-14    2
 1.27832520E+02 2.92957500E+00 2.10620400E+00 7.21659500E-03 5.33847200E-06    3
-7.37763600E-09 2.07561000E-12 9.78601100E+02 1.31521770E+01                   4
CH4               000000C   1H   4          G    300.00   5000.00 1000.00      1
 1.65326226E+00 1.00263099E-02-3.31661238E-06 5.36483138E-10-3.14696758E-14    2
-1.00095936E+04 9.90506283E+00 5.14911468E+00-1.36622009E-02 4.91453921E-05    3
-4.84246767E-08 1.66603441E-11-1.02465983E+04-4.63848842E+00                   4
CH3O2             000000C   1O   2H   3     G    300.00   5000.00 1000.00      1
 5.92505819E+00 9.00194542E-03-3.24254309E-06 5.24362718E-10-3.14263003E-14    2
-1.53258958E+03-4.93669747E+00 4.76597792E+00-3.51077148E-03 4.54394152E-05    3
-5.66763729E-08 2.21591482E-11-4.82401289E+02 4.76095141E+00                   4
C2H5              000000C   2H   5          G    300.00   5000.00 1000.00      1
 1.95465642E+00 1.73972722E-02-7.98206668E-06 1.75217689E-09-1.49641576E-13    2
 1.28575200E+04 1.34624343E+01 4.30646568E+00-4.18658892E-03 4.97142807E-05    3
-5.99126606E-08 2.30509004E-11 1.28416265E+04 4.70720924E+00                   4
HCCOH             000000C   2O   1H   2     G    300.00   5000.00 1000.00      1
 5.92382910E+00 6.79236000E-03-2.56585640E-06 4.49878410E-10-2.99401010E-14    2
 7.26462600E+03-7.60177420E+00 1.24237330E+00 3.10722010E-02-5.08668640E-05    3
 4.31371310E-08-1.40145940E-11 8.03161430E+03 1.38743190E+01                   4
CH2CHO                  C   2H   3O   1     G   298.000 3000.000 1000.000      1
+3.63026330E+00+1.41239404E-02-7.16478146E-06+1.76263004E-09-1.70391996E-13    2
+4.29875072E+02+6.20577997E+00+9.86311004E-01+2.24920216E-02-1.64812936E-05    3
+5.86617239E-09-6.81551147E-13+1.07163704E+03+1.95196726E+01                   4
CH3CHO            000000C   2O   1H   4     G    300.00   5000.00 1000.00      1
 2.68543112E+00 1.76802373E-02-8.65402739E-06 2.03680589E-09-1.87630935E-13    2
-2.21653701E+04 1.11635653E+01 1.40653856E+00 2.16984438E-02-1.47573265E-05    3
 7.30435478E-09-2.09119467E-12-2.17973223E+04 1.77513265E+01                   4
H2C2              000000C   2H   2          G    300.00   5000.00 1000.00      1
 4.27803400E+00 4.75628040E-03-1.63010090E-06 2.54628060E-10-1.48863790E-14    2
 4.83166880E+04 6.40237010E-01 3.28154830E+00 6.97647910E-03-2.38552440E-06    3
-1.21044320E-09 9.81895450E-13 4.86217940E+04 5.92039100E+00                   4
C2H5O             000000C   2O   1H   5     G    300.00   5000.00 1000.00      1
 2.46262349E+00 2.09503959E-02-9.39291750E-06 1.56440627E-09 0.00000000E+00    2
-3.83932658E+03 1.28738847E+01 4.94420708E-01 2.71774434E-02-1.65909010E-05    3
 5.15204200E-09-6.48496915E-13-3.35252925E+03 2.28079378E+01                   4
C2H6              000000C   2H   6          G    300.00   5000.00 1000.00      1
 1.07188150E+00 2.16852677E-02-1.00256067E-05 2.21412001E-09-1.90002890E-13    2
-1.14263932E+04 1.51156107E+01 4.29142492E+00-5.50154270E-03 5.99438288E-05    3
-7.08466285E-08 2.68685771E-11-1.15222055E+04 2.66682316E+00                   4
C2O                     H  0 C  2 O  1      G   200.0   3000.0   1000.0        1
 4.34400693E+00 4.37478707E-03-2.56000095E-06 6.99892708E-10-7.32213869E-14    2
 4.43197166E+04 2.09419414E+00 3.03149846E+00 1.10743614E-02-1.64643075E-05    3
 1.40152768E-08-4.87136483E-12 4.45479894E+04 8.17433479E+00                   4
CH3O2H            000000C   1O   2H   4     G    300.00   5000.00 1000.00      1
 4.46640989E+00 1.51021326E-02-6.80105535E-06 1.13252538E-09 0.00000000E+00    2
-1.80236075E+04 3.04195823E+00 3.23442817E+00 1.90129767E-02-1.13386287E-05    3
 3.40306653E-09-4.11830222E-13-1.77197926E+04 9.25623949E+00                   4
CH2O2H     9/ 1/12      C   1H   3O   2    0G  300.0000 5000.0000 1410.00      1
 9.24697852e+00 4.60845541e-03-1.53501472e-06 2.34434830e-10-1.34573106e-14    2
 4.11688272e+03-2.11483916e+01 2.84073987e+00 2.12956192e-02-1.83219973e-05    3
 8.00644141e-09-1.41385097e-12 6.12878548e+03 1.25852152e+01                   4
O2CHO             000000C   1O   3H   1     G    300.00   5000.00 1000.00      1
 4.05631532E+00 1.02919332E-02-4.89896198E-06 8.42819470E-10 0.00000000E+00    2
-1.73830665E+04 1.12996603E+01 3.96059309E+00 1.06002279E-02-5.25713351E-06    3
 1.01716726E-09-2.87487602E-14-1.73599383E+04 1.17807483E+01                   4
HO2CHO            000000C   1O   3H   2     G    300.00   5000.00 1000.00      1
 5.19208731E+00 1.32377286E-02-6.79541016E-06 1.23480098E-09 0.00000000E+00    2
-3.61691664E+04 3.52718036E+00 2.42464726E+00 2.19706380E-02-1.68705546E-05    3
 6.25612194E-09-9.11645843E-13-3.54828006E+04 1.75027796E+01                   4
OCHO                    H  1 C  1 O  2      G   200.0   3000.0   1000.0        1
 4.67155853E+00 7.17074614E-03-4.10754903E-06 1.10551778E-09-1.14302683E-13    2
-1.75240704E+04 1.69001288E+00 3.11733532E+00 1.47139172E-02-1.93667065E-05    3
 1.55910348E-08-5.32961011E-12-1.72333647E+04 8.98793531E+00                   4
CH3CO                   C   2H   3O   1     G   100.000  5000.000 1011.57      1
 4.39400390E+00 1.04823631E-02-4.12726915E-06 7.69396111E-10-5.45058431E-14    2
-3.15699544E+03 3.46495242E+00 3.63677806E+00 4.50843851E-03 1.80295069E-05    3
-2.25970038E-08 7.88625499E-12-2.54495147E+03 9.39482958E+00                   4
C2H4O2H           000000C   2O   2H   5     G    300.00   5000.00 1000.00      1
 5.13616373E+00 2.13281200E-02-9.93908510E-06 1.69984335E-09 0.00000000E+00    2
 1.61939714E+03 4.75750168E+00 3.40977031E+00 2.65939711E-02-1.57408161E-05    3
 4.41132564E-09-4.49209001E-13 2.05874655E+03 1.35264941E+01                   4
C2H5O2            000000C   2O   2H   5     G    300.00   5000.00 1000.00      1
 3.83373177E+00 2.17306531E-02-9.46240963E-06 1.53103480E-09 0.00000000E+00    2
-5.58246437E+03 9.88539944E+00 3.25121167E+00 2.36765869E-02-1.18477606E-05    3
 2.79401564E-09-2.41043601E-13-5.44533068E+03 1.27953147E+01                   4
C2H5OH            000000C   2O   1H   6     G    300.00   5000.00 1000.00      1
 6.56243650E+00 1.52042220E-02-5.38967950E-06 8.62250110E-10-5.12897870E-14    2
-3.15256210E+04-9.47302020E+00 4.85869570E+00-3.74017260E-03 6.95553780E-05    3
-8.86547960E-08 3.51688350E-11-2.99961320E+04 4.80185450E+00                   4
CH3CHOH           000000C   2O   1H   5     G    300.00   5000.00 1000.00      1
 6.76654240E+00 1.16344360E-02-3.77906510E-06 5.38288750E-10-2.73153450E-14    2
-5.60929690E+03-9.39804420E+00 2.48133280E+00 1.67900360E-02 3.77554990E-06    3
-1.39234970E-08 6.00951930E-12-4.01200540E+03 1.45816220E+01                   4
C2H5O2H           000000C   2O   2H   6     G    300.00   5000.00 1000.00      1
 5.70203347E+00 2.20031800E-02-9.75531641E-06 1.62734437E-09 0.00000000E+00    2
-2.25386960E+04-1.74439233E+00 1.57329011E+00 3.52379996E-02-2.53203993E-05    3
 9.56802476E-09-1.48167375E-12-2.15278368E+04 1.90472032E+01                   4
CH3CO3            000000C   2O   3H   3     G    300.00   5000.00 1000.00      1
 6.99421069E+00 1.57684758E-02-7.08319519E-06 1.16988327E-09 0.00000000E+00    2
-2.42270741E+04-5.76704497E+00 3.60373432E+00 2.70080341E-02-2.08293438E-05    3
 8.50541104E-09-1.43846110E-12-2.34205171E+04 1.12014914E+01                   4
CH3CO2            000000C   2O   2H   3     G    300.00   5000.00 1000.00      1
 6.56385115E+00 1.69546516E-02-9.31566538E-06 1.77666502E-09 0.00000000E+00    2
-2.21467361E+04 3.20445091E+00 3.94199159E+00 2.43434884E-02-1.65595560E-05    3
 4.58537411E-09-3.31795708E-13-2.14404829E+04 1.66954362E+01                   4
HCOH                    C   1H   2O   1     G   300.000 5000.000 1398.000      1
+9.18749272E+00+1.52011152E-03-6.27603516E-07+1.09727989E-10-6.89655128E-15    2
+7.81364593E+03-2.73434214E+01-2.82157421E+00+3.57331702E-02-3.80861580E-05    3
+1.86205951E-08-3.45957838E-12+1.12956672E+04+3.48487757E+01                   4
CHOCHO                  C   2H   2O   2     G   300.000 5000.000 1386.000      1
+9.75438561E+00+4.97645947E-03-1.74410483E-06+2.75586994E-10-1.61969892E-14    2
-2.95832896E+04-2.61878329E+01+1.88105120E+00+2.36386368E-02-1.83443295E-05    3
+6.84842963E-09-9.92733674E-13-2.69280190E+04+1.59154793E+01                   4
C2H3OOH                 C   2H   4O   2     G   300.000 5000.000 1397.000      1
+1.15749951E+01+8.09909174E-03-2.81808668E-06+4.42697954E-10-2.58998042E-14    2
-8.84852664E+03-3.43859117E+01+1.35644398E+00+3.37002447E-02-2.75988500E-05    3
+1.14222854E-08-1.89488886E-12-5.49996692E+03+1.98354466E+01                   4
C2H3OO                  C   2H   3O   2     G   298.150 2000.000 1000.000      1
+6.04483828E+00+1.45511127E-02-7.50974622E-06+1.83488280E-09-1.66689681E-13    2
+1.01699244E+04-3.71144913E+00+1.09784776E+00+2.95333237E-02-2.27744360E-05    3
+7.20559155E-09-3.07929092E-13+1.13996101E+04+2.13563583E+01                   4
CHCHO                   C   2H   2O   1     G   298.150 2000.000 1000.000      1
+4.92632910E+00+9.71712147E-03-5.54855980E-06+1.53068537E-09-1.64742462E-13    2
+2.89499494E+04+5.27874677E-01+2.33256751E+00+1.62952986E-02-9.72052177E-06    3
+5.15124155E-10+1.03836514E-12+2.96585452E+04+1.39904923E+01                   4
C2H3OH                  C   2H   4O   1     G   300.000 5000.000 1410.000      1
+8.32598158E+00+8.03387281E-03-2.63928405E-06+3.98410726E-10-2.26551155E-14    2
-1.83221436E+04-2.02080305E+01-1.27972260E-01+3.38506073E-02-3.30644935E-05    3
+1.64858739E-08-3.19935455E-12-1.59914544E+04+2.30438601E+01                   4
C2H2OH                  C   2H   3O   1     G   300.000 5000.000 1401.000      1
+8.20268447E+00+5.92989165E-03-1.99194448E-06+3.05794341E-10-1.76114732E-14    2
+1.24881328E+04-1.89670436E+01+6.41642616E-01+2.61903633E-02-2.30385370E-05    3
+1.02804704E-08-1.81971416E-12+1.48276951E+04+2.06750999E+01                   4
HOCHO                   C   1H   2O   2     G   200.000 6000.000 1000.000      1
+4.61383160E+00+6.44963640E-03-2.29082510E-06+3.67160470E-10-2.18736750E-14    2
-4.75148500E+04+8.47883830E-01+3.89836160E+00-3.55877950E-03+3.55205380E-05    3
-4.38499590E-08+1.71077690E-11-4.67706090E+04+7.34953970E+00                   4
HOCO                    C   1H   1O   2     G   200.000 6000.000 1000.000      1
+5.39206152E+00+4.11221455E-03-1.48194900E-06+2.39875460E-10-1.43903104E-14    2
-2.38606717E+04-2.23529091E+00+2.92207919E+00+7.62453859E-03+3.29884437E-06    3
-1.07135205E-08+5.11587057E-12-2.30281524E+04+1.12925886E+01                   4
C2H4O1-2                C   2H   4O   1         200.000 6000.000 1000.000      1
+5.48876410E+00+1.20461900E-02-4.33369310E-06+7.00283110E-10-4.19490880E-14    2
-9.18042510E+03-7.07996050E+00+3.75905320E+00-9.44121800E-03+8.03097210E-05    3
-1.00807880E-07+4.00399210E-11-7.56081430E+03+7.84974750E+00                   4
C2H3O1-2                C   2H   3O   1     G   200.000 6000.000 1000.000      1
+5.60158035E+00+9.17613962E-03-3.28028902E-06+5.27903888E-10-3.15362241E-14    2
+1.71446252E+04-5.47228512E+00+3.58349017E+00-6.02275805E-03+6.32426867E-05    3
-8.18540707E-08+3.30444505E-11+1.85681353E+04+9.59725926E+00                   4
CH2COOH                 C   2H   3O   2     G   100.000 5000.000 1058.000      1
+7.98363370E+00+1.18141983E-02-5.27086059E-06+1.04331700E-09-7.61676344E-14    2
-3.15520596E+04-1.60852630E+01+2.92688293E+00+1.79294703E-02+4.49427810E-06    3
-1.67263265E-08+6.86762832E-12-2.97543074E+04+1.20349895E+01                   4
CH2CO2                  C   2H   2O   2     G   300.000 5000.000 1000.000      1
+7.65364625E+00+8.11459788E-03-3.27402215E-06+6.04725280E-10-4.19318185E-14    2
-2.47039852E+03-1.29488037E+01+1.58410663E+00+2.55753337E-02-1.92389918E-05    3
+4.43061572E-09+7.05951245E-13-9.15619463E+02+1.80375721E+01                   4
CH3COH                  C   2H   4O   1     G   100.000 5000.000 1002.180      1
+7.92846957E+00+8.15875470E-03-2.91410601E-06+5.15186396E-10-3.55331439E-14    2
+2.33088834E+04-1.53492432E+01+2.84111291E+00+2.24591992E-02-1.53305901E-05    3
+2.79616250E-09+8.86886968E-13+2.46301178E+04+1.07098389E+01                   4
SC2H2OH                 C   2H   3O   1     G   300.000 5000.000 1410.000      1
+7.99235139E+00+5.83109353E-03-1.89242965E-06+2.83129118E-10-1.59933287E-14    2
+9.51237374E+03-1.62058375E+01+1.63791895E+00+2.64968839E-02-2.74821415E-05    3
+1.43110557E-08-2.85794966E-12+1.11467016E+04+1.58714777E+01                   4
HOCH2CO                 C   2H   3O   2     G   300.000 5000.000 1487.000      1
+9.43496508E+00+7.68897340E-03-2.74959280E-06+4.39772312E-10-2.60488233E-14    2
-2.29700136E+04-2.04618579E+01+5.12916864E+00+9.07172819E-03+6.49228146E-06    3
-8.56591893E-09+2.31070825E-12-2.06151607E+04+5.73007596E+00                   4
PC2H4OH                 C   2H   5O   1     G   300.000 5000.000 1395.000      1
+8.06750150E+00+1.06143554E-02-3.57999360E-06+5.50363760E-10-3.17051769E-14    2
-6.92747939E+03-1.53833428E+01+2.59479867E+00+2.27100669E-02-1.39473846E-05    3
+4.70095591E-09-6.90044236E-13-4.91486975E+03+1.43240718E+01                   4
O2CH2CHO                C   2H   3O   3     G   300.000 5000.000 1393.000      1
+1.11807543E+01+9.14479256E-03-3.15089833E-06+4.91944238E-10-2.86639180E-14    2
-1.55790331E+04-2.87892740E+01-1.29465843E+00+4.44936393E-02-4.26577074E-05    3
+2.07391950E-08-3.96828771E-12-1.18275628E+04+3.60778797E+01                   4
HO2CH2CO                C   2H   3O   3     G   300.000 5000.000 1386.000      1
+1.04146322E+01+1.12680116E-02-5.17494839E-06+1.00333285E-09-6.68165911E-14    2
-1.40955672E+04-2.27894400E+01+2.22681686E+00+3.56781380E-02-3.26401909E-05    3
+1.47651988E-08-2.64794380E-12-1.18735095E+04+1.91581197E+01                   4
C2H2                    C   2H   2          G   100.000  5000.000  962.80      1
 5.02077795E+00 4.22470269E-03-1.42000136E-06 2.56105133E-10-1.84544863E-14    2
 2.55666188E+04-6.22588857E+00 3.11331938E+00 6.02058533E-03 5.33031324E-06    3
-1.10293378E-08 4.62859887E-12 2.62179845E+04 4.37938268E+00                   4
H                       H   1               G   100.000  5000.000 3459.60      1
 2.49999999E+00 9.20455546E-12-3.58608293E-15 6.15198922E-19-3.92041801E-23    2
 2.54742178E+04-4.44972842E-01 2.50000000E+00 9.24384602E-15-1.36779837E-17    3
 6.66184769E-21-1.00106912E-24 2.54742178E+04-4.44972896E-01                   4
C2H3                    C   2H   3          G   100.000  5000.000  956.69      1
 4.81087656E+00 6.59337838E-03-2.20129495E-06 4.04587872E-10-2.98091068E-14    2
 3.37427523E+04-1.85774644E+00 3.83146115E+00-7.47448486E-04 2.72388708E-05    3
-3.26055590E-08 1.18614714E-11 3.44534845E+04 5.55913311E+00                   4
H2                      H   2               G   100.000  5000.000 1522.54      1
 3.18685793E+00 1.91831968E-04 2.13778007E-07-6.16100081E-11 4.90274624E-15    2
-8.68610051E+02-2.39505918E+00 3.48836221E+00 9.89580039E-05-3.83604271E-07    3
 5.01598766E-10-1.37104049E-13-1.04146650E+03-4.24254296E+00                   4
C2H4                    C   2H   4          G   100.000  5000.000  979.36      1
 3.55660610E+00 1.10627464E-02-4.17019079E-06 7.85586770E-10-5.70060829E-14    2
 4.32046489E+03 2.17719479E+00 3.97471606E+00-4.75844285E-03 4.16783770E-05    3
-4.51392516E-08 1.54224761E-11 4.91540746E+03 3.62430844E+00                   4



! CRECK-NOx
NO                000000N   1O   1          G    200.00   3500.00  800.00      1
 2.84621514E+00 2.06354046E-03-1.06904715E-06 2.65706521E-10-2.54948673E-14    2
 1.00671113E+04 8.61842850E+00 4.25026596E+00-4.95671364E-03 1.20939293E-05    3
-1.07034405E-08 3.40236358E-12 9.84246312E+03 2.15799980E+00                   4
N2O               000000N   2O   1          G    200.00   3500.00 1420.00      1
 4.85543722E+00 2.58052440E-03-9.33594196E-07 1.54088463E-10-9.24862860E-15    2
 8.05595827E+03-2.39060855E+00 2.51620681E+00 9.16990584E-03-7.89420840E-06    3
 3.42198245E-09-5.84582078E-13 8.72029970E+03 9.71509320E+00                   4
NO2               000000N   1O   2          G    200.00   3500.00 1800.00      1
 4.19813794E+00 3.78881378E-03-2.08226003E-06 5.53837970E-10-5.45690377E-14    2
 2.49824368E+03 3.49647574E+00 2.86592221E+00 6.74929318E-03-4.54932620E-06    3
 1.46756618E-09-1.81475734E-13 2.97784134E+03 1.07067052E+01                   4
HNO               000000N   1H   1O   1     G    200.00   3500.00  700.00      1
 2.88552845E+00 3.71507602E-03-9.89194577E-07 1.60505677E-10-1.61198693E-14    2
 1.18465422E+04 9.10108586E+00 4.47186928E+00-5.34972870E-03 1.84353870E-05    3
-1.83390958E-08 6.59088065E-12 1.16244545E+04 2.01371639E+00                   4
HNO2              000000N   1H   1O   2     G    200.00   3500.00  700.00      1
 1.72007297E+00 1.13464166E-02-6.67663344E-06 1.82835451E-09-1.88889111E-13    2
-6.26025905E+03 1.58192354E+01 3.09881792E+00 3.46787403E-03 1.02059578E-05    3
-1.42503038E-08 5.55348886E-12-6.45328334E+03 9.65935176E+00                   4
HONO              000000N   1H   1O   2     G    200.00   3500.00 1450.00      1
 5.99816567E+00 3.29505604E-03-1.07588927E-06 1.49768833E-10-6.76019596E-15    2
-1.16909495E+04-5.24156198E+00 2.71684795E+00 1.23469670E-02-1.04399351E-05    3
 4.45507726E-09-7.49054752E-13-1.07393674E+04 1.18081173E+01                   4
NH3               000000N   1H   3          G    200.00   3500.00  700.00      1
 2.51781806E+00 5.95384021E-03-2.00551774E-06 3.21049857E-10-1.88806103E-14    2
-6.46278677E+03 7.18902506E+00 4.05091142E+00-2.80669328E-03 1.67670540E-05    3
-1.75575899E-08 6.36634788E-12-6.67741985E+03 3.39551794E-01                   4
N                 000000N   1               G    200.00   3500.00 1800.00      1
 2.42215558E+00 1.52655402E-04-9.87414150E-08 2.32518158E-11-1.22034408E-15    2
 5.61344054E+04 4.62162566E+00 2.50554288E+00-3.26497078E-05 5.56795096E-08    3
-3.39411193E-11 6.72311912E-15 5.61043859E+04 4.17031620E+00                   4
NH                000000N   1H   1          G    200.00   3500.00 1670.00      1
 2.48662839E+00 1.81565444E-03-7.12541166E-07 1.51936873E-10-1.23899449E-14    2
 4.24864648E+04 7.43461547E+00 3.66298286E+00-1.00196106E-03 1.81825120E-06    3
-8.58359483E-10 1.38852024E-13 4.20935624E+04 1.15612276E+00                   4
NH2               000000N   1H   2          G    200.00   3500.00 1280.00      1
 2.55273412E+00 3.54675597E-03-1.12718085E-06 1.61534507E-10-6.97197513E-15    2
 2.15912601E+04 8.13032012E+00 4.10678625E+00-1.30965693E-03 4.56392802E-06    3
-2.80258469E-09 5.71957556E-13 2.11934228E+04 2.49283504E-01                   4
H2NO              000000N   1H   2O   1     G    200.00   3500.00  700.00      1
 2.72801504E+00 7.40936630E-03-3.46220929E-06 8.08344165E-10-7.54853119E-14    2
 6.86495538E+03 9.84388852E+00 3.66110547E+00 2.07742096E-03 7.96338786E-06    3
-1.00731769E-08 3.81077222E-12 6.73432272E+03 5.67507654E+00                   4
HCN               000000N   1H   1C   1     G    200.00   3500.00  780.00      1
 3.49786301E+00 3.76915269E-03-1.51027204E-06 3.01080815E-10-2.43629368E-14    2
 1.43955802E+04 3.23683733E+00 2.24572677E+00 1.01903642E-02-1.38587557E-05    3
 1.08553403E-08-3.40713842E-12 1.45909135E+04 8.96656341E+00                   4
HNC               000000N   1H   1C   1     G    200.00   3500.00  700.00      1
 4.41179651E+00 2.12707775E-03-4.71968004E-07 1.02353966E-12 7.69770113E-15    2
 2.16589078E+04-1.07356914E+00 2.73172541E+00 1.17274840E-02-2.10442672E-05    3
 1.95936894E-08-6.98968297E-12 2.18941178E+04 6.43256348E+00                   4
HNCO              000000N   1H   1O   1C   1G    200.00   3500.00 1050.00      1
 4.68274059E+00 5.27517046E-03-2.30255409E-06 4.91740802E-10-4.20405692E-14    2
-1.59709573E+04 2.61731790E-01 2.23902625E+00 1.45845584E-02-1.56016797E-05    3
 8.93563010E-09-2.05249040E-12-1.54577773E+04 1.21704701E+01                   4
HCNO              000000N   1H   1O   1C   1G    200.00   3500.00  780.00      1
 4.79767988E+00 6.41431462E-03-3.21741495E-06 7.84733929E-10-7.49876219E-14    2
 1.84217969E+04-2.20789647E+00 6.69823287E-01 2.75828100E-02-4.39260599E-05    3
 3.55784476E-08-1.12268189E-11 1.90657425E+04 1.66810126E+01                   4
CH3NO2            000000N   1H   3O   2C   1G    200.00   3500.00 1800.00      1
 5.69934620E+00 1.38065607E-02-6.43453311E-06 1.45264682E-09-1.30225206E-13    2
-1.27635731E+04-5.01015009E+00 5.58676790E-01 2.52302705E-02-1.59542913E-05    3
 4.97848318E-09-6.19924700E-13-1.09129321E+04 2.28122252E+01                   4
CN                000000N   1C   1          G    200.00   3500.00  890.00      1
 2.80498942E+00 1.99013249E-03-1.04863794E-06 2.95566162E-10-3.14165335E-14    2
 5.18669927E+04 7.89927658E+00 3.76469138E+00-2.32313475E-03 6.22091360E-06    3
-5.14979079E-09 1.49817812E-12 5.16961658E+04 3.38110710E+00                   4
NCO               000000N   1O   1C   1     G    200.00   3500.00 1630.00      1
 5.49723499E+00 1.70371834E-03-5.14809903E-07 5.30240356E-11-1.05670803E-16    2
 1.33777864E+04-4.53940223E+00 2.90100726E+00 8.07482934E-03-6.37779548E-06    3
 2.45097315E-09-3.67889277E-13 1.42241566E+04 9.25436079E+00                   4
H2CN              000000N   1H   2C   1     G    200.00   3500.00  700.00      1
 2.09516104E+00 9.19258718E-03-4.75958105E-06 1.19375090E-09-1.16674696E-13    2
 2.77113212E+04 1.25272169E+01 3.31830755E+00 2.20317853E-03 1.02177232E-05    3
-1.30703484E-08 4.97764648E-12 2.75400807E+04 7.06250773E+00                   4
CH2NH             000000N   1H   3C   1     G    200.00   3500.00  700.00      1
 5.80669263E-01 1.46544725E-02-7.73860026E-06 1.97648489E-09-1.95880938E-13    2
 9.93682813E+03 1.93649676E+01 3.61447523E+00-2.68156158E-03 2.94100442E-05    3
-3.34031765E-08 1.24397124E-11 9.51209529E+03 5.81069011E+00                   4
NCN               000000N   2C   1          G    200.00   3500.00 1540.00      1
 6.26178527E+00 8.14604744E-04-6.32168059E-08-5.68978567E-11 1.02757866E-14    2
 5.13388447E+04-9.55046103E+00 2.82367216E+00 9.74476868E-03-8.76142843E-06    3
 3.70856172E-09-6.01000119E-13 5.23977836E+04 8.52096412E+00                   4
HNCN              000000N   2H   1C   1     G    200.00   3500.00 1460.00      1