THERMO
   300.000  1000.000  5000.000
!!    [C]=O
!!    InChI=1S/CO/c1-2
CO                000000C   1O   1          G    300.00   5000.00 1000.00      1
 2.71518561E+00 2.06252743E-03-9.98825771E-07 2.30053008E-10-2.03647716E-14    2
-1.41518724E+04 7.81868772E+00 3.57953347E+00-6.10353680E-04 1.01681433E-06    3
 9.07005884E-10-9.04424499E-13-1.43440860E+04 3.50840928E+00                   4
!!    [O]O
!!    InChI=1S/HO2/c1-2/h1H
HO2               000000O   2H   1          G    300.00   5000.00 1000.00      1
 4.17228741E+00 1.88117627E-03-3.46277286E-07 1.94657549E-11 1.76256905E-16    2
 3.10206839E+01 2.95767672E+00 4.30179807E+00-4.74912097E-03 2.11582905E-05    3
-2.42763914E-08 9.29225225E-12 2.64018485E+02 3.71666220E+00                   4
!!    CC[O]
!!    InChI=1S/C2H5O/c1-2-3/h2H2,1H3
C2H5O             000000C   2O   1H   5     G    300.00   5000.00 1000.00      1
 2.46262349E+00 2.09503959E-02-9.39291750E-06 1.56440627E-09 0.00000000E+00    2
-3.83932658E+03 1.28738847E+01 4.94420708E-01 2.71774434E-02-1.65909010E-05    3
 5.15204200E-09-6.48496915E-13-3.35252925E+03 2.28079378E+01                   4
!!    CO[O]
!!    InChI=1S/CH3O2/c1-3-2/h1H3
CH3O2             000000C   1O   2H   3     G    300.00   5000.00 1000.00      1
 5.92505819E+00 9.00194542E-03-3.24254309E-06 5.24362718E-10-3.14263003E-14    2
-1.53258958E+03-4.93669747E+00 4.76597792E+00-3.51077148E-03 4.54394152E-05    3
-5.66763729E-08 2.21591482E-11-4.82401289E+02 4.76095141E+00                   4
!!    O
!!    InChI=1S/H2O/h1H2
H2O               000000O   1H   2          G    300.00   5000.00 1000.00      1
 3.03399249E+00 2.17691804E-03-1.64072518E-07-9.70419870E-11 1.68200992E-14    2
-3.00042971E+04 4.96677010E+00 4.19864056E+00-2.03643410E-03 6.52040211E-06    3
-5.48797062E-09 1.77197817E-12-3.02937267E+04-8.49032208E-01                   4
!! O=C1C=C[CH]C1
!! InChI=1S/C5H5O/c6-5-3-1-2-4-5/h1-3H,4H2     CPND2-4R          P2 ortho-C5H5O isomer  Cypent-3-eneone-2yl C5H5O1_1 3-cyclopentene-1-one-2yl
TXC5H5O           000000C   5O   1H   5     G    300.00   5000.00 1000.00      1
 1.26065350E+01 1.67470670E-02-6.10975870E-06 9.96745760E-10-6.01118340E-14    2
 1.41146570E+03-4.26049110E+01 2.30436010E-01 3.23225720E-02 2.89009080E-05    3
-7.06806130E-08 3.34071740E-11 5.55547240E+03 2.53309460E+01                   4
!!       C=C
!!       InChI=1S/C2H4/c1-2/h1-2H2
C2H4                    C   2H   4          G   100.000  5000.000  979.36      1
 3.55660610E+00 1.10627464E-02-4.17019079E-06 7.85586770E-10-5.70060829E-14    2
 4.32046489E+03 2.17719479E+00 3.97471606E+00-4.75844285E-03 4.16783770E-05    3
-4.51392516E-08 1.54224761E-11 4.91540746E+03 3.62430844E+00                   4
!!    [CH]=C=[CH]
!!    InChI=1S/C3H2/c1-3-2/h1-2H
C3H2              000000C   3H   2          G    300.00   5000.00 1000.00      1
 7.67920588E+00 3.85560826E-03-8.23429967E-07-6.18108592E-11 2.93114202E-14    2
 6.29136323E+04-1.42211873E+01 4.52861333E+00 1.77565501E-02-2.54882946E-05    3
 2.01674629E-08-6.28544707E-12 6.35410087E+04 8.09423748E-01                   4
!!    [CH2]C=C
!!    InChI=1S/C3H5/c1-3-2/h3H,1-2H2
A-C3H5                  H  5 C  3 O  0      G   200.0   3000.0   1000.0        1
 4.22973890E+00 1.88238808E-02-8.86343156E-06 2.03225185E-09-1.84214522E-13    2
 1.78789497E+04 9.28205318E-01 1.47214563E+00 1.77370863E-02 1.80437301E-05    3
-3.95394054E-08 1.83246688E-11 1.89020240E+04 1.68401967E+01                   4
!!    [CH]
!!    InChI=1S/CH/h1H
CH                000000C   1H   1          G    300.00   5000.00 1000.00      1
 2.87846473E+00 9.70913681E-04 1.44445655E-07-1.30687849E-10 1.76079383E-14    2
 7.10124364E+04 5.48497999E+00 3.48981665E+00 3.23835541E-04-1.68899065E-06    3
 3.16217327E-09-1.40609067E-12 7.07972934E+04 2.08401108E+00                   4
!!    C[C]=O
!!    InChI=1S/C2H3O/c1-2-3/h1H3
CH3CO                   C   2H   3O   1     G   100.000  5000.000 1011.57      1
 4.39400390E+00 1.04823631E-02-4.12726915E-06 7.69396111E-10-5.45058431E-14    2
-3.15699544E+03 3.46495242E+00 3.63677806E+00 4.50843851E-03 1.80295069E-05    3
-2.25970038E-08 7.88625499E-12-2.54495147E+03 9.39482958E+00                   4
!!    C=C=C(C)C
!!    InChI=1S/C5H8/c1-4-5(2)3/h1H2,2-3H3
C5H8              000000H   8C   5          G    300.00   4000.00 1000.00      1
 7.97205310E+00 2.68614160E-02-9.56546320E-06 1.13079120E-09 0.00000000E+00    2
 5.10466811E+03-1.85090870E+01 1.76636500E+00 4.32678800E-02-2.37613290E-05    3
 5.12588110E-09 0.00000000E+00 6.84030700E+03 1.37180600E+01                   4
!!    O=O
!!    InChI=1S/O2/c1-2
O2                000000O   2               G    300.00   5000.00 1000.00      1
 3.28253784E+00 1.48308754E-03-7.57966669E-07 2.09470555E-10-2.16717794E-14    2
-1.08845772E+03 5.45323129E+00 3.78245636E+00-2.99673416E-03 9.84730201E-06    3
-9.68129509E-09 3.24372837E-12-1.06394356E+03 3.65767573E+00                   4
!!    CC=O
!!    InChI=1S/C2H4O/c1-2-3/h2H,1H3
CH3CHO            000000C   2O   1H   4     G    300.00   5000.00 1000.00      1
 2.68543112E+00 1.76802373E-02-8.65402739E-06 2.03680589E-09-1.87630935E-13    2
-2.21653701E+04 1.11635653E+01 1.40653856E+00 2.16984438E-02-1.47573265E-05    3
 7.30435478E-09-2.09119467E-12-2.17973223E+04 1.77513265E+01                   4
!!    [CH2]
!!    InChI=1S/CH2/h1H2_SINGLET
S-CH2             000000C   1H   2          G    300.00   5000.00 1000.00      1
 2.29203842E+00 4.65588637E-03-2.01191947E-06 4.17906000E-10-3.39716365E-14    2
 5.09259997E+04 8.62650169E+00 4.19860411E+00-2.36661419E-03 8.23296220E-06    3
-6.68815981E-09 1.94314737E-12 5.04968163E+04-7.69118967E-01                   4
!!    CC=CO
!!    InChI=1S/C3H6O/c1-2-3-4/h2-4H,1H3
SC3H5OH                 C   3H   6O   1     G   298.000 3000.000 1000.000      1  !\COMMENT: SP_FROM GOLDSMITH
+5.15026206E+00+2.35923425E-02-1.14263883E-05+2.70815158E-09-2.54145326E-13    2
-2.06936916E+04-5.56559884E-01+2.73013612E+00+3.03161502E-02-1.65712529E-05    3
+2.50557776E-09+7.89611311E-13-2.00786225E+04+1.18162879E+01                   4
!!    C=CO
!!    InChI=1S/C2H4O/c1-2-3/h2-3H,1H2
C2H3OH                  C   2H   4O   1     G   300.000 5000.000 1410.000      1  !\COMMENT:  2/ 3/ 9 THERM
+8.32598158E+00+8.03387281E-03-2.63928405E-06+3.98410726E-10-2.26551155E-14    2
-1.83221436E+04-2.02080305E+01-1.27972260E-01+3.38506073E-02-3.30644935E-05    3
+1.64858739E-08-3.19935455E-12-1.59914544E+04+2.30438601E+01                   4
!!    [O]
!!    InChI=1S/O
O                 000000O   1               G    300.00   5000.00 1000.00      1
 2.56942078E+00-8.59741137E-05 4.19484589E-08-1.00177799E-11 1.22833691E-15    2
 2.92175791E+04 4.78433864E+00 3.16826710E+00-3.27931884E-03 6.64306396E-06    3
-6.12806624E-09 2.11265971E-12 2.91222592E+04 2.05193346E+00                   4
!!    [C](=O)O
!!    InChI=1S/CHO2/c2-1-3/h(H,2,3)
HOCO                    C   1H   1O   2     G   200.000 6000.000 1000.000      1  !\COMMENT:  T05/06
+5.39206152E+00+4.11221455E-03-1.48194900E-06+2.39875460E-10-1.43903104E-14    2
-2.38606717E+04-2.23529091E+00+2.92207919E+00+7.62453859E-03+3.29884437E-06    3
-1.07135205E-08+5.11587057E-12-2.30281524E+04+1.12925886E+01                   4
!!    [C]
!!    InChI=1S/C
C                 000000C   1               G    300.00   5000.00 1000.00      1
 2.49266888E+00 4.79889284E-05-7.24335020E-08 3.74291029E-11-4.87277893E-15    2
 8.54512953E+04 4.80150373E+00 2.55423955E+00-3.21537724E-04 7.33792245E-07    3
-7.32234889E-10 2.66521446E-13 8.54438832E+04 4.53130848E+00                   4
!!    C=C=C
!!    InChI=1S/C3H4/c1-3-2/h1-2H2
A-C3H4            000000C   3H   4          G    300.00   5000.00 1000.00      1
 2.56128757E+00 1.95080128E-02-1.04061366E-05 2.70165173E-09-2.75074329E-13    2
 2.13894289E+04 9.20550397E+00 3.68928265E-01 2.89351397E-02-2.44386408E-05    3
 1.12547166E-08-2.03040262E-12 2.17585256E+04 1.95267211E+01                   4
!!    [CH2]C
!!    InChI=1S/C2H5/c1-2/h1H2,2H3
C2H5              000000C   2H   5          G    300.00   5000.00 1000.00      1
 1.95465642E+00 1.73972722E-02-7.98206668E-06 1.75217689E-09-1.49641576E-13    2
 1.28575200E+04 1.34624343E+01 4.30646568E+00-4.18658892E-03 4.97142807E-05    3
-5.99126606E-08 2.30509004E-11 1.28416265E+04 4.70720924E+00                   4
!!    CCC=O
!!    InChI=1S/C3H6O/c1-2-3-4/h3H,2H2,1H3
C2H5CHO           000000C   3O   1H   6     G    300.00   5000.00 1000.00      1
 3.10401322E+00 2.66733882E-02-1.20750385E-05 2.02236556E-09 0.00000000E+00    2
-2.44647131E+04 1.13387411E+01 2.16308444E+00 2.95501264E-02-1.52446252E-05    3
 3.49503947E-09-2.38896627E-13-2.42260137E+04 1.61153348E+01                   4
!!    CC(=O)CO
!!    InChI=1S/C3H6O2/c1-3(5)2-4/h4H,2H2,1H3
ACETOL            000000O   2H   6C   3     G    300.00   4000.00 1390.00      1
 1.10277409E+01 1.56022896E-02-5.18498789E-06 7.89604263E-10-4.52017356E-14    2
-4.93518932E+04-2.96460029E+01 1.70110573E+00 3.49995386E-02-1.95672111E-05    3
 5.13929120E-09-4.54830190E-13-4.58857790E+04 2.12715964E+01                   4
!!    [O]C1=CC=CC=C1, phenoxy
!!    InChI=1S/C6H5O/c7-6-4-2-1-3-5-6/h1-5H  C6H5O_2
A1O                     H   5C   6O   1     G   298.150  2000.000 1000.00      1
 4.91310577E+00 3.82697431E-02-2.30456960E-05 6.90570351E-09-8.31506998E-13    2
 3.70238235E+03-2.20607182E+00-4.68515694E+00 7.07969018E-02-6.30375959E-05    3
 2.77010780E-08-4.56387758E-12 5.91532949E+03 4.55664705E+01                   4
!!    O=CC(=O)CO
!!    InChI=1S/C3H4O3/c4-1-3(6)2-5/h1,5H,2H2
C3H4O3            000000O   3H   4C   3     G    300.00   4000.00 1388.00      1
 1.37530675E+01 1.08054207E-02-3.64230159E-06 5.60730953E-10-3.23659923E-14    2
-5.77839662E+04-4.01019465E+01 2.08981535E+00 3.83715226E-02-2.82590499E-05    3
 1.04299134E-08-1.53140407E-12-5.38199819E+04 2.23338530E+01                   4
!!    C=C=O
!!    InChI=1S/C2H2O/c1-2-3/h1H2
CH2CO             000000C   2O   1H   2     G    300.00   5000.00 1000.00      1
 4.51129732E+00 9.00359745E-03-4.16939635E-06 9.23345882E-10-7.94838201E-14    2
-7.55105311E+03 6.32247205E-01 2.13583630E+00 1.81188721E-02-1.73947474E-05    3
 9.34397568E-09-2.01457615E-12-7.04291804E+03 1.22156480E+01                   4
!!    C[CH]C=C
!!    InChI=1S/C4H7/c1-3-4-2/h3-4H,1H2,2H3
C4H71X3                 H   7C   4          G   298.150  2000.000 1000.00      1 !! Li et al., J. Phys. Chem. A 2017, 121, 40, 7433-7445
 4.47617781E+00 2.66061714E-02-1.10888375E-05 1.79886075E-09-3.16384167E-14    2
 1.31926786E+04 2.39613050E+00 6.14359756E-01 3.48974683E-02-1.27918198E-05    3
-4.22179308E-09 3.26251888E-12 1.43228410E+04 2.28161641E+01                   4
!!    O=CC1=CC=CO1
!!    InChI=1S/C5H4O2/c6-4-5-2-1-3-7-5/h1-4H
C5H4O2            000000O   2H   4C   5     G    300.00   4000.00 1000.00      1
 1.59553578E+01 1.22096134E-02-4.19491662E-06 6.54219009E-10-3.81060338E-14    2
-2.55664634E+04-5.96830465E+01-1.86260023E+00 5.70946426E-02-4.76338594E-05    3
 1.97949337E-08-3.26585828E-12-1.97873020E+04 3.47179869E+01                   4
!!    OO
!!    InChI=1S/H2O2/c1-2/h1-2H
H2O2              000000O   2H   2          G    300.00   5000.00 1000.00      1
 4.16500285E+00 4.90831694E-03-1.90139225E-06 3.71185986E-10-2.87908305E-14    2
-1.78617877E+04 2.91615662E+00 4.27611269E+00-5.42822417E-04 1.67335701E-05    3
-2.15770813E-08 8.62454363E-12-1.77025821E+04 3.43505074E+00                   4
!!    OC1C2COC(O2)C(O)C1O
!!    InChI=1S/C6H10O5/c7-3-2-1-10-6(11-2)5(9)4(3)8/h2-9H,1H2
C6H10O5           000000O   5H  10C   6     G    300.00   4000.00 1000.00      1
 2.79850422E+01 2.64166682E-02-9.13640739E-06 1.42923991E-09-8.33656585E-14    2
-1.14313686E+05-1.17754445E+02-7.81241700E+00 1.25424511E-01-1.16271866E-04    3
 5.44734561E-08-1.00746170E-11-1.03428291E+05 6.90300863E+01                   4
!!    CC(C)(C)[C]O
!!    InChI=1S/C5H10O/c1-5(2,3)4-6/h6H,1-3H3
IC5H9OH           000000O   1H  10C   5     G    300.00   4000.00 1394.00      1
 1.47423131E+01 2.19843767E-02-7.51584192E-06 1.16633393E-09-6.76421638E-14    2
-4.16616600E+04-5.28466211E+01-8.37465362E-01 5.76520639E-02-3.90215462E-05    3
 1.40131231E-08-2.11159111E-12-3.61265628E+04 3.11701525E+01                   4
!!    CC=C=O
!!    InChI=1S/C3H4O/c1-2-3-4/h2H,1H3
CH3CHCO           000000C   3O   1H   4     G    300.00   5000.00 1000.00      1
 6.45951145E+00 1.56117000E-02-6.55127220E-06 1.02541702E-09 0.00000000E+00    2
-1.27042477E+04-7.71512800E+00 1.48380119E+00 3.22203013E-02-2.70250033E-05    3
 1.20499164E-08-2.18365931E-12-1.15276540E+04 1.71552068E+01                   4
!!    COC1=CC=CC=C1
!!    InChI=1S/C7H8O/c1-8-7-5-3-2-4-6-7/h2-6H,1H3
C6H5OCH3   3/02/16 THERMC   7H   8O   1    0G   300.000  5000.000 1393.000    21
 2.03938728E+01 2.09088165E-02-7.22522263E-06 1.12997840E-09-6.59097524E-14    2
-1.85558154E+04-8.62920505E+01-5.40888697E+00 8.73332441E-02-7.39639658E-05    3
 3.20208039E-08-5.56946955E-12-1.02318239E+04 5.00696056E+01                   4
!!    C=C=C=C[O]
!!    InChI=1S/C4H3O/c1-2-3-4-5/h4H,1H2
C4H3O             000000O   1H   3C   4     G    300.00   4000.00 1000.00      1
 1.29455763E+01 7.95235476E-03-2.80679691E-06 4.45205248E-10-2.62240810E-14    2
 1.75946397E+04-4.78819894E+01-5.84674088E+00 6.20875882E-02-6.30010605E-05    3
 3.06882361E-08-5.75456234E-12 2.30253176E+04 4.92940922E+01                   4
!!    [CH2]C(C)=O
!!    InChI=1S/C3H5O/c1-3(2)4/h1H2,2H3
CH3COCH2                C   3H   5O   1     G   100.000  5000.000 1005.62      1
 7.59010605E+00 1.55447166E-02-6.02335585E-06 1.12468480E-09-8.02421172E-14    2
-6.95408930E+03-1.22859915E+01 2.84405919E+00 1.89152103E-02 1.20804806E-05    3
-2.62117392E-08 1.05278958E-11-5.21542306E+03 1.45362336E+01                   4
!!    [CH]=O
!!    InChI=1S/CHO/c1-2/h1H
HCO               000000C   1O   1H   1     G    300.00   5000.00 1000.00      1
 2.77217438E+00 4.95695526E-03-2.48445613E-06 5.89161778E-10-5.33508711E-14    2
 4.01191815E+03 9.79834492E+00 4.22118584E+00-3.24392532E-03 1.37799446E-05    3
-1.33144093E-08 4.33768865E-12 3.83956496E+03 3.39437243E+00                   4
!!    CO
!!    InChI=1S/CH4O/c1-2/h2H,1H3
CH3OH             000000C   1O   1H   4     G    300.00   5000.00 1000.00      1
 1.78970791E+00 1.40938292E-02-6.36500835E-06 1.38171085E-09-1.17060220E-13    2
-2.53748747E+04 1.45023623E+01 5.71539582E+00-1.52309129E-02 6.52441155E-05    3
-7.10806889E-08 2.61352698E-11-2.56427656E+04-1.50409823E+00                   4
!!    [H]
!!    InChI=1S/H
H                       H   1               G   100.000  5000.000 3459.60      1
 2.49999999E+00 9.20455546E-12-3.58608293E-15 6.15198922E-19-3.92041801E-23    2
 2.54742178E+04-4.44972842E-01 2.50000000E+00 9.24384602E-15-1.36779837E-17    3
 6.66184769E-21-1.00106912E-24 2.54742178E+04-4.44972896E-01                   4
!!    C=C(C)C
!!    InChI=1S/C4H8/c1-4(2)3/h1H2,2-3H3
IXC4H8            000000C   4H   8          G    300.00   5000.00 1000.00      1
 2.86958571E+00 3.29649207E-02-1.46431210E-05 2.41629691E-09 0.00000000E+00    2
-4.22675236E+03 9.39239621E+00 9.38433173E-01 3.90547287E-02-2.16437148E-05    3
 5.87267077E-09-6.14435479E-13-3.74817891E+03 1.91442985E+01                   4
!!    C=CC=C
!!    InChI=1S/C4H6/c1-3-4-2/h3-4H,1-2H2
C4H6                    H   6C   4          G   298.150  2000.000 1000.00      1 !! Li et al., J. Phys. Chem. A 2017, 121, 40, 7433-7445
 6.24959157E+00 2.20761797E-02-9.82471418E-06 1.93468553E-09-1.14632536E-13    2
 1.02076188E+04-9.44099775E+00-3.13620895E+00 5.52125538E-02-5.29190333E-05    3
 2.62574036E-08-5.09360505E-12 1.23051203E+04 3.69417713E+01                   4
!!    O=CC=O
!!    InChI=1S/C2H2O2/c3-1-2-4/h1-2H
CHOCHO                  C   2H   2O   2     G   300.000 5000.000 1386.000      1  !\COMMENT:
+9.75438561E+00+4.97645947E-03-1.74410483E-06+2.75586994E-10-1.61969892E-14    2
-2.95832896E+04-2.61878329E+01+1.88105120E+00+2.36386368E-02-1.83443295E-05    3
+6.84842963E-09-9.92733674E-13-2.69280190E+04+1.59154793E+01                   4
!!    CC(=O)O
!!    InChI=1S/C2H4O2/c1-2(3)4/h1H3,(H,3,4)
CH3COOH           000000O   2H   4C   2     G    300.00   4000.00 1000.00      1
 6.91666936E+00 1.28920800E-02-4.20990320E-06 4.58049540E-10 0.00000000E+00    2
-5.53508487E+04-1.02392103E+01 8.46928500E-01 2.92145000E-02-1.86455200E-05    3
 4.64098720E-09 0.00000000E+00-5.36761800E+04 2.11901500E+01                   4
!!    C#C
!!    InChI=1S/C2H2/c1-2/h1-2H
C2H2                    C   2H   2          G   100.000  5000.000  962.80      1
 5.02077795E+00 4.22470269E-03-1.42000136E-06 2.56105133E-10-1.84544863E-14    2
 2.55666188E+04-6.22588857E+00 3.11331938E+00 6.02058533E-03 5.33031324E-06    3
-1.10293378E-08 4.62859887E-12 2.62179845E+04 4.37938268E+00                   4
!!    [O]CC1=CC=CC=C1, benzoxyl
!!    InChI=1S/C7H7O/c8-6-7-4-2-1-3-5-7/h1-5H,6H2
A1CH2O            000000C   7O   1H   7     G    300.00   3000.00 1000.00      1
 2.07930551E+00 5.52718914E-02-3.31303125E-05 9.40679473E-09-1.02414852E-12    2
 1.17599254E+04 1.58657771E+01-4.75332952E+00 7.85832217E-02-5.57118748E-05    3
 1.19664685E-08 2.51904475E-12 1.31155256E+04 4.93043758E+01                   4
!!    O=CCCO
!!    InChI=1S/C3H6O2/c4-2-1-3-5/h2,5H,1,3H2
C3H6O2            000000O   2H   6C   3     G    300.00   4000.00 1382.00      1
 1.18936666E+01 1.44153203E-02-4.77525443E-06 7.26036430E-10-4.15285995E-14    2
-4.59271652E+04-3.27285750E+01 2.66613285E+00 3.46302298E-02-2.14380719E-05    3
 6.90469334E-09-9.16939105E-13-4.25706030E+04 1.73358364E+01                   4
!!    [CH]1C=CC=CC1
!!    InChI=1S/C6H7/c1-2-4-6-5-3-1/h1-5H,6H2
C6H7-3                  C   6H   7          G   100.000  5000.000  956.68      1
 1.33871941E+01 1.87096234E-02-5.90232457E-06 1.12951565E-09-8.83609249E-14    2
 1.92107265E+04-4.82466211E+01 2.48065299E+00 1.32573249E-02 8.26942880E-05    3
-1.16390577E-07 4.51986511E-11 2.36338838E+04 1.60987501E+01                   4
!!    C1C=CC=C1
!!    InChI=1S/C5H6/c1-2-4-5-3-1/h1-4H,5H2
C5H6              000000C   5H   6          G    300.00   3000.00 1000.00      1
 2.30537462E-01 4.09571826E-02-2.41588958E-05 6.79763480E-09-7.36374421E-13    2
 1.43779465E+04 2.02551234E+01-5.13691194E+00 6.06953453E-02-4.60552837E-05    3
 1.28457201E-08 7.41214852E-13 1.53675713E+04 4.61567559E+01                   4
!!    C#CC=C
!!    InChI=1S/C4H4/c1-3-4-2/h1,4H,2H2
C4H4                    C   4H   4          G   100.000  5000.000  955.25      1
 8.52652790E+00 1.08961504E-02-3.56564474E-06 6.31243407E-10-4.51890878E-14    2
 3.11962382E+04-1.96435183E+01 2.87083262E+00 1.82042500E-02 1.06710562E-05    3
-2.72491598E-08 1.19477652E-11 3.30238451E+04 1.12934384E+01                   4
!!    [CH2]  !! triplet[CH2]
!!    InChI=1S/CH2/h1H2
T-CH2             000000C   1H   2          G    300.00   5000.00 1000.00      1
 2.87410113E+00 3.65639292E-03-1.40894597E-06 2.60179549E-10-1.87727567E-14    2
 4.62636040E+04 6.17119324E+00 3.76267867E+00 9.68872143E-04 2.79489841E-06    3
-3.85091153E-09 1.68741719E-12 4.60040401E+04 1.56253185E+00                   4
!!    O=CO
!!    InChI=1S/CH2O2/c2-1-3/h1H,(H,2,3)
HOCHO                   C   1H   2O   2     G   200.000 6000.000 1000.000      1  !\COMMENT:  L 8/88
+4.61383160E+00+6.44963640E-03-2.29082510E-06+3.67160470E-10-2.18736750E-14    2
-4.75148500E+04+8.47883830E-01+3.89836160E+00-3.55877950E-03+3.55205380E-05    3
-4.38499590E-08+1.71077690E-11-4.67706090E+04+7.34953970E+00                   4
!!    C=C=CCC=C
!!    InChI=1S/C6H8/c1-3-5-6-4-2/h3,6H,1-2,5H2
CH2CCHCH2CHCH2          C   6H   8          G   300.000 5000.000 1379.000      1  !\COMMENT:  18 THERM
+1.58520129E+01+1.97066390E-02-6.90722981E-06+1.08998926E-09-6.39582431E-14    2
+2.22042203E+04-5.71482464E+01+4.75032479E-01+5.61981818E-02-4.40031144E-05    3
+2.07777749E-08-4.49682996E-12+2.77606909E+04+2.57614601E+01                   4
!!    O=C=O
!!    InChI=1S/CO2/c2-1-3
CO2               000000C   1O   2          G    300.00   5000.00 1000.00      1
 3.85746029E+00 4.41437026E-03-2.21481404E-06 5.23490188E-10-4.72084164E-14    2
-4.87591660E+04 2.27163806E+00 2.35677352E+00 8.98459677E-03-7.12356269E-06    3
 2.45919022E-09-1.43699548E-13-4.83719697E+04 9.90105222E+00                   4
!!    c1[c]cccc1
!!    InChI=1S/C6H5/c1-2-4-6-5-3-1/h1-5H C6H5_R_1
A1-                     H   5C   6          G   298.150  2000.000 1000.00      1
 3.64534182E+00 3.47211258E-02-1.99427625E-05 5.63096428E-09-6.30417456E-13    2
 3.77324336E+04 3.27494460E+00-5.05512557E+00 6.28508508E-02-5.21291329E-05    3
 2.04163999E-08-2.65874021E-12 3.98061344E+04 4.69177066E+01                   4
!!    C=C[CH]C=C
!!    InChI=1S/C5H7/c1-3-5-4-2/h3-5H,1-2H2
CVCCJCVC                C   5H   7          G   200.000 3000.000 1000.000      1  !\AUTHOR: KPS/YS !\COMMENT: [5C5H7] [OPT//HR//HOF: WB97XD/AUG-CC-PVTZ//0K[CBS-APNO/G3/G4]] GENERATED ON [2019_01_10_15_10_20]
+5.86851076E+00+3.08634054E-02-1.50886736E-05+3.59004361E-09-3.36867228E-13    2
+2.06538155E+04-6.26163911E+00+2.85573896E+00+1.98463870E-02+4.89861925E-05    3
-8.24914232E-08+3.56995236E-11+2.21298963E+04+1.32141610E+01                   4
!!    C1=CC2(CO2)C=C[CH]1
!!    InChI=1S/C7H7O/c1-2-4-7(5-3-1)6-8-7/h1-5H,6H2
C6H5CYCH2O 07/28/17THERMC   7H   7O   1    0G   300.000  5000.000 1402.000    01
1.91923903E+01 1.99832445E-02-6.84837707E-06 1.06493580E-09-6.18638645E-14    2
1.07135098E+04-8.01938374E+01-5.76102318E+00 8.61923944E-02-7.51548526E-05    3
3.33118351E-08-5.87864067E-12 1.85278620E+04 5.09131733E+01                   4
!!    O=CC1=CC=C(CO)O1
!!    InChI=1S/C6H6O3/c7-3-5-1-2-6(4-8)9-5/h1-3,8H,4H2
C6H6O3            000000O   3H   6C   6     G    300.00   4000.00 1382.00      1
 1.93892545E+01 1.86134462E-02-6.31148097E-06 9.75462374E-10-5.64561412E-14    2
-4.92678935E+04-7.16786498E+01 5.98814621E-01 6.18493802E-02-4.38009436E-05    3
 1.55531333E-08-2.20506530E-12-4.27313109E+04 2.93828012E+01                   4
!!    [CH2]CO
!!    InChI=1S/C2H5O/c1-2-3/h3H,1-2H2
PC2H4OH                 C   2H   5O   1     G   300.000 5000.000 1395.000      1  !\COMMENT:  8/12/15
+8.06750150E+00+1.06143554E-02-3.57999360E-06+5.50363760E-10-3.17051769E-14    2
-6.92747939E+03-1.53833428E+01+2.59479867E+00+2.27100669E-02-1.39473846E-05    3
+4.70095591E-09-6.90044236E-13-4.91486975E+03+1.43240718E+01                   4
!!    [CH3]
!!    InChI=1S/CH3/h1H3
CH3               000000C   1H   3          G    300.00   5000.00 1000.00      1
 2.97812060E+00 5.79785200E-03-1.97558000E-06 3.07297900E-10-1.79174160E-14    2
 1.65095130E+04 4.72247990E+00 3.65717970E+00 2.12659790E-03 5.45838830E-06    3
-6.61810030E-09 2.46570740E-12 1.64227160E+04 1.67353540E+00                   4
!!    C[O]
!!    InChI=1S/CH3O/c1-2/h1H3
CH3O              000000C   1O   1H   3     G    300.00   5000.00 1000.00      1
 3.77079900E+00 7.87149700E-03-2.65638400E-06 3.94443100E-10-2.11261600E-14    2
 1.27832520E+02 2.92957500E+00 2.10620400E+00 7.21659500E-03 5.33847200E-06    3
-7.37763600E-09 2.07561000E-12 9.78601100E+02 1.31521770E+01                   4
!!    c1ccccc1
!!    InChI=1S/C6H6/c1-2-4-6-5-3-1/h1-6H C6H6_1
A1                      C   6H   6          G   200.000  3500.000  950.77      1
 4.06749000E+00 3.53350000E-02-1.82495000E-05 4.47453000E-09-4.21489000E-13    2
 6.76912000E+03-2.06220000E+00-2.81519000E+00 4.68382000E-02-8.86217000E-06    3
-2.14154000E-08 1.14630000E-11 8.86673000E+03 3.49438000E+01                   4
!!    C1=COC=C1
!!    InChI=1S/C4H4O/c1-2-4-5-3-1/h1-4H
CC4H4O                  C   4H   4O   1     G   100.000  5000.000  826.92      1
 5.72417062E+00 2.07489889E-02-9.21393108E-06 1.85135829E-09-1.37927702E-13    2
-7.25190605E+03-7.59062233E+00 1.05838883E+00 1.13229749E-02 6.59226383E-05    3
-1.05514436E-07 4.64675092E-11-5.38633448E+03 2.06467994E+01                   4
!!    C1=CC=CCC1=O
!!    InChI=1S/C6H6O/c7-6-4-2-1-3-5-6/h1-4H,5H2
C6H6O-24   8/07/17   LITC   6H   6O   1    0G   300.000  5000.000 1398.000    01
1.59036713E+01 1.78013991E-02-6.12108521E-06 9.53935313E-10-5.54992080E-14    2
-1.00818721E+04-6.16827813E+01-3.78295265E+00 6.73949119E-02-5.45517149E-05    3
2.26537091E-08-3.79446033E-12-3.64301457E+03 4.27055399E+01                   4
!!    [CH]=C=O
!!    InChI=1S/C2HO/c1-2-3/h1H
HCCO              000000C   2O   1H   1     G    300.00   5000.00 1000.00      1
 5.62820580E+00 4.08534010E-03-1.59345470E-06 2.86260520E-10-1.94078320E-14    2
 1.93272150E+04-3.93025950E+00 2.25172140E+00 1.76550210E-02-2.37291010E-05    3
 1.72757590E-08-5.06648110E-12 2.00594490E+04 1.24904170E+01                   4
!!    [CH2]CC=O
!!    InChI=1S/C3H5O/c1-2-3-4/h3H,1-2H2
CH2CH2CHO         000000C   3O   1H   5     G    300.00   5000.00 1000.00      1
-6.77607551E+00 4.53839720E-02-2.31798667E-05 4.07097539E-09 0.00000000E+00    2
 2.90620639E+03 6.64968049E+01 8.36272659E+00-3.90712606E-03 3.59751257E-05    3
-2.69209237E-08 5.98920261E-12-7.55243244E+02-9.53140102E+00                   4
!!    C=C1C=CC=C1
!!    InChI=1S/C6H6/c1-6-4-2-3-5-6/h2-5H,1H2
C5H4CH2                0C   6H   6    0    0G   200.000  5000.000 1000.00    0 1
 0.11103525E+02 0.20600685E-01-0.75302224E-05 0.12388695E-08-0.75415976E-13    2
 0.20361843E+05-0.36665197E+02-0.71813191E+00 0.37934312E-01 0.11398837E-04    3
-0.41333503E-07 0.18055927E-10 0.24223825E+05 0.27855714E+02                   4
!!       [H][H]
!!       InChI=1S/H2/h1H
H2                      H   2               G   100.000  5000.000 1522.54      1
 3.18685793E+00 1.91831968E-04 2.13778007E-07-6.16100081E-11 4.90274624E-15    2
-8.68610051E+02-2.39505918E+00 3.48836221E+00 9.89580039E-05-3.83604271E-07    3
 5.01598766E-10-1.37104049E-13-1.04146650E+03-4.24254296E+00                   4
!!    [CH2]C=O
!!    InChI=1S/C2H3O/c1-2-3/h2H,1H2
CH2CHO                  C   2H   3O   1     G   298.000 3000.000 1000.000      1  !\COMMENT:
+3.63026330E+00+1.41239404E-02-7.16478146E-06+1.76263004E-09-1.70391996E-13    2
+4.29875072E+02+6.20577997E+00+9.86311004E-01+2.24920216E-02-1.64812936E-05    3
+5.86617239E-09-6.81551147E-13+1.07163704E+03+1.95196726E+01                   4
!!    CC1=CC=C[CH]1
!!    InChI=1S/C6H7/c1-6-4-2-3-5-6/h2-5H,1H3
C5H4CH3         17   LITC   6H   7    0     G   300.000  5000.000 1400.000     1
 1.50272937E+01 1.80083785E-02-6.16578517E-06 9.57991706E-10-5.56127818E-14    2
 1.93817415E+04-5.65979232E+01-3.91288831E+00 6.72649774E-02-5.62562950E-05    3
 2.44181559E-08-4.27683233E-12 2.54520537E+04 4.33343548E+01                   4
!!    CC(C)=O
!!    InChI=1S/C3H6O/c1-3(2)4/h1-2H3
CH3COCH3          000000C   3O   1H   6     G    300.00   5000.00 1000.00      1
 1.07057510E+00 3.05641014E-02-1.43848777E-05 2.47538664E-09 0.00000000E+00    2
-2.75121809E+04 2.06647304E+01 1.30767163E+00 2.92021742E-02-1.19045617E-05    3
 6.52150087E-10 4.67751203E-13-2.75328269E+04 1.96395025E+01                   4
!!    O=[C]C1=CC=CC=C1
!!    InChI=1S/C7H5O/c8-6-7-4-2-1-3-5-7/h1-5H
A1CO                    C   7H   5O   1     G   100.000  5000.000 1019.89      1
 1.76958321E+01 1.42960573E-02-3.17667059E-06 3.75648446E-11 1.29644999E-14    2
 5.51719613E+03-6.77955746E+01 1.69954986E+00 3.75522208E-02 2.06864578E-05    3
-5.35175631E-08 2.24447878E-11 1.08334393E+04 1.97588558E+01                   4
!!    OC1C2OC3COC1C3O2
!!    InChI=1S/C6H8O4/c7-3-5-4-2(1-8-5)9-6(3)10-4/h2-7H,1H2
C6H8O4            000000O   4H   8C   6     G    300.00   4000.00 1398.00      1
 2.45389912E+01 2.22706283E-02-7.73806446E-06 1.21423501E-09-7.09771757E-14    2
-8.16610603E+04-1.00550137E+02-4.60104207E+00 1.00736116E-01-9.05484350E-05    3
 4.13812870E-08-7.52102026E-12-7.25801173E+04 5.22649333E+01                   4
!!    C
!!    InChI=1S/CH4/h1H4
CH4               000000C   1H   4          G    300.00   5000.00 1000.00      1
 1.65326226E+00 1.00263099E-02-3.31661238E-06 5.36483138E-10-3.14696758E-14    2
-1.00095936E+04 9.90506283E+00 5.14911468E+00-1.36622009E-02 4.91453921E-05    3
-4.84246767E-08 1.66603441E-11-1.02465983E+04-4.63848842E+00                   4
!!    [CH]1C=CC=C1
!!    InChI=1S/C5H5/c1-2-4-5-3-1/h1-5H
C5H5              000000C   5H   5          G    300.00   3000.00 1000.00      1
 4.21464919E+00 2.71834728E-02-1.33173209E-05 3.08980119E-09-2.77879873E-13    2
 2.88952416E+04-3.05999781E-02-7.37844042E+00 9.72391818E-02-1.69579138E-04    3
 1.51818667E-07-5.12075479E-11 3.05514662E+04 5.12829539E+01                   4
!!    [CH]=C
!!    InChI=1S/C2H3/c1-2/h1H,2H2
C2H3                    C   2H   3          G   100.000  5000.000  956.69      1
 4.81087656E+00 6.59337838E-03-2.20129495E-06 4.04587872E-10-2.98091068E-14    2
 3.37427523E+04-1.85774644E+00 3.83146115E+00-7.47448486E-04 2.72388708E-05    3
-3.26055590E-08 1.18614714E-11 3.44534845E+04 5.55913311E+00                   4
!!    C=CC=O
!!    InChI=1S/C3H4O/c1-2-3-4/h2-3H,1H2
C2H3CHO                 C   3H   4O   1     G   298.000 3000.000 1000.000      1  !\COMMENT:
+4.27745325E+00+2.08995067E-02-1.10621906E-05+2.80392911E-09-2.76871274E-13    2
-1.01465486E+04+2.26814496E+00+1.30858881E+00+2.90665687E-02-1.85267312E-05    3
+5.10575873E-09-3.12357850E-13-9.34139504E+03+1.75831373E+01                   4
!!    [CH2]C#C
!!    InChI=1S/C3H3/c1-3-2/h1H,2H2
C3H3                    C   3H   3              200.000 6000.000 1000.000      1  !\COMMENT:  T 7/11  (from C3 mech)
+7.14221719E+00+7.61902211E-03-2.67460030E-06+4.24914904E-10-2.51475443E-14    2
+3.95710114E+04-1.25848129E+01+1.34577946E+00+3.27862233E-02-4.75146967E-05    3
+3.77892551E-08-1.19201548E-11+4.07684638E+04+1.52273792E+01                   4
!!    OC1=CC=CC=C1, phenol
!!    InChI=1S/C6H6O/c7-6-4-2-1-3-5-6/h1-5,7H  C6H6O_3
A1OH                    H   6C   6O   1     G   298.150  2000.000 1000.00      1
 5.98175304E+00 3.82279981E-02-2.21176162E-05 6.39877372E-09-7.44634423E-13    2
-1.47607480E+04-8.17803532E+00-5.47415498E+00 7.95011500E-02-7.72016239E-05    3