ELEMENTS
O  H  C  N  AR
END
SPECIES
AR		N2		A1CO		H2O2		CH		T-CH2		CVCCVCCJVO		CH2CHO		
CH2OH		A1-		TXC5H5O		OC6H4O		C2H3CHO		N-C4H5		C5H4CH2		C3H3		
S-CH2		A1CHO		A1CH2O		C6H5CYCH2O		C6H5OCH2		C5H4CH3		C5H6		C5H5CH3-1		
C3H2		A-C3H4		A1OH		C6H6O-24		CH2CO		HCCO		C2H3		CH4		
C2H6		A-C3H5		C3H6		CH3O		C2H2		C5H5		O		A1		
HCO		CH2O		HO2		H		C2H4		C2H5		A1O		CH3		
OH		CO		C6H5OCH3		CO2		O2		H2		H2O		
END
REACTIONS
! H2 reactions
H2+M<=>2H+M			 4.577e+19  -1.400  104380.019
CO/1.90/   H2O/12.00/   H2/2.50/   CO2/3.80/   AR/0.00/   
H2+AR<=>2H+AR			 5.840e+18  -1.100  104380.019
! O reactions
O+H+M<=>OH+M			 4.714e+18  -1.000   0.000
CO/1.90/   CO2/3.80/   AR/0.75/   H2/2.50/   H2O/12.00/   
O+H2<=>H+OH			 8.792e+14  0.000  19169.933
O+H2<=>H+OH			 3.818e+12  0.000  7947.897
2O+AR<=>O2+AR			 1.886e+13  0.000  -1788.002
2O+M<=>O2+M			 6.165e+15  -0.500   0.000
H2/2.50/   H2O/12.00/   CO2/3.80/   CO/1.90/   AR/0.00/   
! OH reactions
H2+OH<=>H2O+H			 2.160e+08  1.510  3429.971
2OH<=>O+H2O			 3.340e+04  2.420  -1929.971
! H2O reactions
2H2O<=>H+OH+H2O			 1.006e+26  -2.440  120179.971
H2O+M<=>H+OH+M			 6.064e+27  -3.322  120789.914
CO2/3.80/   H2/3.00/   O2/1.50/   CO/1.90/   H2O/0.00/   
! O2 reactions
H+O2<=>O+OH			 1.040e+14  0.000  15286.090
H+O2(+M)<=>HO2(+M)			 4.651e+12  0.440  0.00000e+00
	TROE / 5.000e-01  1.000e-30 1.000e+30 /
	LOW / 6.366e+20  -1.720e+00  524.857/
CO/1.90/   CO2/3.80/   AR/0.67/   H2O/14.00/   H2/2.00/   O2/0.78/   
! HO2 reactions
2HO2<=>H2O2+O2			 1.214e+10  0.422  -1480.402
OH+HO2<=>H2O+O2			 1.930e+20  -2.490  584.130
HO2+H<=>H2+O2			 2.750e+06  2.090  -1451.004
HO2+H<=>2OH			 7.079e+13  0.000  294.933
OH+HO2<=>H2O+O2			 1.210e+09  1.240  -1307.600
HO2+O<=>O2+OH			 2.850e+10  1.000  -723.948
2HO2<=>H2O2+O2			 1.688e+16  -0.681  12931.644
! H2O2 reactions
H2O2+H<=>HO2+H2			 4.820e+13  0.000  7950.048
H2O2+OH<=>HO2+H2O			 1.740e+12  0.000  318.117
H2O2(+M)<=>2OH(+M)			 2.000e+12  0.900  4.87490e+04
	TROE / 4.300e-01  1.000e-30 1.000e+30 /
	LOW / 2.490e+24  -2.300e+00  48750.000/
CO/2.80/   N2/1.50/   O2/1.20/   H2O2/7.70/   H2/3.70/   H2O/7.50/   CO2/1.60/   
H2O2+O<=>OH+HO2			 9.550e+06  2.000  3969.885
H2O2+H<=>H2O+OH			 2.410e+13  0.000  3969.885
H2O2+OH<=>HO2+H2O			 7.590e+13  0.000  7270.076
! CH reactions
CH+O<=>CO+H			 5.700e+13  0.000   0.000
CH+H2O<=>CH2O+H			 5.710e+12  0.000  -755.258
CH+H2<=>T-CH2+H			 1.080e+14  0.000  3109.465
CH+O2<=>HCO+O			 6.710e+13  0.000   0.000
CH+OH<=>HCO+H			 3.000e+13  0.000   0.000
CH+H2(+M)<=>CH3(+M)			 1.970e+12  0.430  -3.70459e+02
	TROE / 5.780e-01  1.220e+02 2.535e+03  9.365000e+03/
	LOW / 4.820e+25  -2.800e+00  590.344/
CO2/3.60/   CH4/2.00/   H2O/12.00/   H2/2.00/   AR/0.70/   C2H6/3.00/   CO/1.75/   
! S-CH2 reactions
S-CH2+H2O=>H2+CH2O			 6.820e+10  0.250  -934.512
S-CH2+OH<=>CH2O+H			 3.000e+13  0.000   0.000
S-CH2+H2<=>CH3+H			 7.000e+13  0.000   0.000
S-CH2+O2<=>H+OH+CO			 2.800e+13  0.000   0.000
S-CH2+H<=>CH+H2			 3.000e+13  0.000   0.000
S-CH2+O<=>CO+H2			 1.500e+13  0.000   0.000
S-CH2+AR<=>T-CH2+AR			 9.000e+12  0.000  599.904
S-CH2+O2<=>CO+H2O			 1.200e+13  0.000   0.000
S-CH2+O<=>HCO+H			 1.500e+13  0.000   0.000
S-CH2+H2O<=>T-CH2+H2O			 3.000e+13  0.000   0.000
! T-CH2 reactions
T-CH2+O2=>OH+H+CO			 5.000e+12  0.000  1500.956
T-CH2+H(+M)<=>CH3(+M)			 6.000e+14  0.000  0.00000e+00
	TROE / 5.620e-01  9.100e+01 5.836e+03  8.552000e+03/
	LOW / 1.040e+26  -2.760e+00  1598.948/
CO/1.75/   C2H6/3.00/   AR/0.70/   H2O/12.00/   H2/2.00/   CH4/2.00/   CO2/3.60/   
2T-CH2<=>C2H2+H2			 1.600e+15  0.000  11943.117
T-CH2+CH<=>C2H2+H			 4.000e+13  0.000   0.000
T-CH2+HO2<=>CH2O+OH			 2.000e+13  0.000   0.000
T-CH2+O2=>CO2+2H			 5.800e+12  0.000  1500.956
T-CH2+O<=>HCO+H			 8.000e+13  0.000   0.000
2T-CH2=>C2H2+2H			 2.000e+14  0.000  10989.484
T-CH2+H2<=>H+CH3			 5.000e+05  2.000  7229.924
T-CH2+OH<=>CH2O+H			 2.000e+13  0.000   0.000
T-CH2+OH<=>CH+H2O			 1.130e+07  2.000  2999.522
T-CH2+O2<=>CH2O+O			 2.400e+12  0.000  1500.956
! CH3 reactions
CH3+O2<=>CH2O+OH			 2.641e+00  3.283  8104.924
CH3+CH<=>C2H3+H			 3.000e+13  0.000   0.000
CH3+OH<=>CH2O+H2			 3.502e+05  1.441  -3244.025
PLOG /			1.0000e-02  3.5020e+05 1.4410e+00 -3244.001/
PLOG /			1.0000e-01  8.8540e+05 1.3270e+00 -2975.000/
PLOG /			1.0000e+00  1.6500e+07 9.7300e-01 -2010.000/
PLOG /			1.0000e+01  5.3740e+09 2.8700e-01 280.000/
PLOG /			1.0000e+02  9.4940e+18 -2.1990e+00 9769.001/
CH3+T-CH2<=>C2H4+H			 2.000e+13  0.000   0.000
CH3+HO2<=>CH3O+OH			 1.070e+12  0.273  -693.117
CH3+HO2<=>CH4+O2			 1.200e+05  2.227  -3021.033
CH3+OH<=>T-CH2+H2O			 4.293e+04  2.568  3997.849
CH3+OH<=>CH2OH+H			 1.621e+10  0.965  3210.086
PLOG /			1.0000e-02  1.0536e+10 9.6500e-01 3209.990/
PLOG /			1.0000e-01  1.1746e+10 9.5000e-01 3250.000/
PLOG /			1.0000e+00  3.0459e+10 8.3300e-01 3570.005/
PLOG /			1.0000e+01  9.9125e+12 1.3400e-01 5640.010/
PLOG /			1.0000e+02  2.3335e+14 -1.8600e-01 8600.000/
CH3+O<=>H+H2+CO			 8.310e+12  0.050  -135.994
CH3+O2<=>CH3O+O			 7.546e+12  0.000  28320.029
CH3+OH<=>H+CH3O			 1.186e+09  1.016  11940.010
PLOG /			1.0000e-02  1.1860e+09 1.0160e+00 11940.010/
PLOG /			1.0000e-01  1.1880e+09 1.0160e+00 11940.010/
PLOG /			1.0000e+00  1.2300e+09 1.0110e+00 11950.000/
PLOG /			1.0000e+01  1.7980e+09 9.6500e-01 12059.990/
PLOG /			1.0000e+02  5.2420e+10 5.5100e-01 13070.005/
CH3+O<=>CH2O+H			 5.540e+13  0.050  -135.994
CH3+OH<=>S-CH2+H2O			 4.936e+14  -0.669  -445.746
PLOG /			1.0000e-02  4.9360e+14 -6.6900e-01 -445.801/
PLOG /			1.0000e-01  1.2070e+15 -7.7800e-01 -175.600/
PLOG /			1.0000e+00  5.2820e+17 -1.5180e+00 1772.000/
PLOG /			1.0000e+01  4.7880e+23 -3.1550e+00 7003.011/
PLOG /			1.0000e+02  8.4330e+19 -1.9620e+00 8244.001/
2CH3<=>H+C2H5			 4.740e+12  0.105  10664.197
PLOG /			1.0000e-02  4.7400e+12 1.0500e-01 10664.293/
PLOG /			1.0000e-01  2.5700e+13 -9.6000e-02 11406.095/
PLOG /			1.0000e+00  3.1000e+14 -3.6200e-01 13372.490/
PLOG /			1.0000e+01  2.1500e+10 8.8500e-01 13532.505/
PLOG /			1.0000e+02  1.0320e+02 3.2300e+00 11236.090/
CH3+H(+M)<=>CH4(+M)			 6.920e+13  0.180  0.00000e+00
	TROE / 7.830e-01  7.400e+01 2.941e+03  6.964000e+03/
	LOW / 3.470e+38  -6.300e+00  5074.092/
CO2/2.00/   CH4/5.00/   H2O/6.00/   H2/2.00/   AR/0.70/   CO/1.50/   C2H6/3.00/   
2CH3(+M)<=>C2H6(+M)			 2.277e+15  -0.690  1.74952e+02
	TROE / 0.000e+00  5.700e+02 1.000e+30  1.000000e+30/
	LOW / 8.054e+31  -3.750e+00  981.597/
CO/2.00/   CO2/3.00/   H2O/5.00/   
CH3+H2O2<=>CH4+HO2			 2.450e+04  2.470  5179.254
CH3+S-CH2<=>C2H4+H			 2.000e+13  0.000   0.000
! CH4 reactions
CH4+OH<=>CH3+H2O			 1.000e+08  1.600  3119.025
CH4+T-CH2<=>2CH3			 2.460e+06  2.000  8269.598
CH4+H<=>CH3+H2			 6.600e+08  1.620  10841.300
CH4+CH<=>C2H4+H			 6.000e+13  0.000   0.000
CH4+O<=>CH3+OH			 1.020e+09  1.500  8599.426
CH4+S-CH2<=>2CH3			 1.600e+13  0.000  -571.224
! CO reactions
CO+HO2<=>CO2+OH			 1.570e+05  2.180  17942.639
T-CH2+CO(+M)<=>CH2CO(+M)			 8.100e+11  0.500  4.51004e+03
	TROE / 5.907e-01  2.750e+02 1.226e+03  5.185000e+03/
	LOW / 2.690e+33  -5.110e+00  7096.080/
AR/0.70/   H2/2.00/   H2O/12.00/   CH4/2.00/   CO2/3.60/   CO/1.75/   C2H6/3.00/   
CO+OH<=>CO2+H			 2.300e+07  1.350  973.948
PLOG /			1.3150e-02  2.1000e+05 1.9000e+00 -1064.001/
PLOG /			1.3150e-01  2.5000e+05 1.8800e+00 -1043.000/
PLOG /			1.3150e+00  8.7000e+05 1.7300e+00 -685.000/
PLOG /			1.3158e+01  6.8000e+06 1.4800e+00 48.000/
PLOG /			1.3158e+02  2.3000e+07 1.3500e+00 974.001/
CO+H2(+M)<=>CH2O(+M)			 4.300e+07  1.500  7.96009e+04
	TROE / 9.320e-01  1.970e+02 1.540e+03  1.030000e+04/
	LOW / 5.070e+27  -3.420e+00  84349.904/
C2H6/3.00/   CO/1.75/   CH4/2.00/   CO2/3.60/   AR/0.70/   H2O/12.00/   H2/2.00/   
CO+O(+M)<=>CO2(+M)			 1.800e+10  0.000  2.38528e+03
	LOW / 1.550e+24  -2.790e+00  4192.161/
H2O/12.00/   H2/2.00/   AR/0.70/   CO2/3.60/   CO/1.75/   
CO+O2<=>CO2+O			 1.050e+12  0.000  47700.048
CH+CO(+M)<=>HCCO(+M)			 5.000e+13  0.000  0.00000e+00
	TROE / 5.757e-01  2.370e+02 1.652e+03  5.069000e+03/
	LOW / 2.690e+28  -3.740e+00  1935.946/
C2H6/3.00/   CO/1.75/   H2/2.00/   H2O/12.00/   AR/0.70/   CO2/3.60/   CH4/2.00/   
S-CH2+CO<=>T-CH2+CO			 9.000e+12  0.000   0.000
! HCO reactions
HCO+M<=>CO+H+M			 4.748e+11  0.659  14873.805
H2/2.00/   CH4/2.00/   CO2/3.60/   C2H6/3.00/   CO/1.75/   H2O/0.00/   
HCO+O2<=>CO+HO2			 1.200e+10  0.807  -727.055
HCO+OH<=>CO+H2O			 3.011e+13  0.000   0.000
2HCO<=>CO+CH2O			 2.700e+13  0.000   0.000
HCO+O<=>CO2+H			 3.000e+13  0.000   0.000
HCO+O<=>CO+OH			 3.020e+13  0.000   0.000
HCO+H<=>CO+H2			 1.200e+14  0.000   0.000
HCO+CH3<=>CO+CH4			 2.650e+13  0.000   0.000
HCO+H(+M)<=>CH2O(+M)			 1.090e+12  0.480  -2.60516e+02
	TROE / 7.824e-01  2.710e+02 2.755e+03  6.570000e+03/
	LOW / 2.470e+24  -2.570e+00  425.430/
CH4/2.00/   CO2/3.60/   AR/0.70/   H2/2.00/   H2O/12.00/   C2H6/3.00/   CO/1.75/   
! CH2O reactions
CH2O+OH<=>HCO+H2O			 3.430e+09  1.180  -446.941
CH2O+O2<=>HCO+HO2			 1.000e+14  0.000  40000.000
CH2O+H<=>HCO+H2			 5.740e+07  1.900  2741.396
CH3+CH2O<=>CH4+HCO			 3.320e+03  2.810  5860.421
CH2O+O<=>HCO+OH			 3.900e+13  0.000  3539.675
CH2O+CH<=>CH2CO+H			 9.460e+13  0.000  -516.252
CH2O+HO2<=>HCO+H2O2			 5.600e+06  2.000  12000.478
! CH3O reactions
CH3O+H<=>S-CH2+H2O			 2.620e+14  -0.230  1070.746
CH3O+O2<=>CH2O+HO2			 2.170e+10  0.000  1748.805
CH3O+O<=>CH2O+OH			 1.000e+13  0.000   0.000
CH3O(+M)<=>CH2O+H(+M)			 1.130e+10  1.210  2.40848e+04
	TROE / 3.410e-01  2.800e+01 1.000e+03  2.339000e+03/
	LOW / 6.022e+16  -5.470e-01  18023.901/
H2/2.00/   H2O/6.00/   AR/0.85/   CO2/2.00/   CH4/2.00/   CO/1.50/   C2H6/3.00/   
CH3O+OH<=>CH2O+H2O			 3.619e+02  2.498  1889.340
CH3O+HO2<=>CH2O+H2O2			 3.000e+11  0.000   0.000
CH3O+H<=>CH2OH+H			 4.150e+07  1.630  1923.996
CH3O+H<=>CH2O+H2			 2.000e+13  0.000   0.000
! CH2OH reactions
CH2OH+H<=>CH2O+H2			 2.000e+13  0.000   0.000
CH2OH+HO2<=>CH2O+H2O2			 1.200e+13  0.000   0.000
CH2OH+H<=>S-CH2+H2O			 3.280e+13  -0.090  609.465
CH2OH+HCO<=>2CH2O			 1.500e+13  0.000   0.000
CH2OH+O2<=>CH2O+HO2			 1.800e+13  0.000  901.052
CH2OH+OH<=>CH2O+H2O			 5.000e+12  0.000   0.000
CH2OH(+M)<=>CH2O+H(+M)			 7.370e+10  0.811  3.95851e+04
	TROE / 8.440e-01  9.000e+02 1.000e+00  3.315000e+03/
	LOW / 3.500e+21  -1.990e+00  24000.000/
CO2/2.00/   CH4/2.00/   CH2O/2.50/   H2O/6.00/   H2/2.00/   AR/0.85/   CO/1.50/   C2H6/3.00/   
CH2OH+O<=>CH2O+OH			 1.000e+13  0.000   0.000
! CO2 reactions
S-CH2+CO2<=>T-CH2+CO2			 7.000e+12  0.000   0.000
CH+CO2<=>HCO+CO			 1.900e+14  0.000  15791.109
S-CH2+CO2<=>CH2O+CO			 1.400e+13  0.000   0.000
! C2H2 reactions
C2H2+O2<=>2HCO			 1.700e+07  1.670  70960.086
C2H2+O<=>T-CH2+CO			 7.395e+08  1.280  2472.036
C2H2+O2<=>2HCO			 6.100e+12  0.000  53250.000
C2H2+HO2<=>CH2CO+OH			 3.580e+03  1.970  23010.038
PLOG /			1.0000e-02  6.2500e-07 4.7500e+00 15529.995/
PLOG /			1.0000e-02  1.3100e-14 6.5800e+00 10270.005/
PLOG /			1.0000e-01  6.7000e-07 4.7400e+00 15550.000/
PLOG /			1.0000e-01  1.2900e-14 6.5900e+00 10329.995/
PLOG /			3.1600e-01  4.1800e-07 4.8100e+00 15409.990/
PLOG /			3.1600e-01  3.9900e-14 6.3600e+00 10270.005/
PLOG /			1.0000e+00  5.2800e-07 4.7800e+00 15459.990/
PLOG /			1.0000e+00  3.2800e-15 6.7000e+00 10090.010/
PLOG /			3.1600e+00  1.0400e-06 4.6900e+00 15640.010/
PLOG /			3.1600e+00  8.7100e-21 8.3000e+00 8107.003/
PLOG /			1.0000e+01  4.6800e-05 4.2200e+00 16779.995/
PLOG /			1.0000e+01  8.3600e-22 8.7600e+00 8803.991/
PLOG /			3.1600e+01  8.9900e-01 2.9700e+00 19729.995/
PLOG /			3.1600e+01  6.8700e-14 6.6700e+00 13129.995/
PLOG /			1.0000e+02  3.5800e+03 1.9700e+00 23009.990/
PLOG /			1.0000e+02  6.6300e-12 6.1500e+00 14729.995/
C2H2+S-CH2<=>C3H3+H			 3.970e+15  -0.571  -4.780
C2H2+T-CH2<=>C3H3+H			 1.200e+13  0.000  6619.981
C2H2+O<=>HCCO+H			 2.958e+09  1.280  2472.036
C2H2+CH3<=>A-C3H5			 3.800e+44  -9.630  37599.904
PLOG /			1.0000e-01  8.2000e+53 -1.3320e+01 33200.048/
PLOG /			1.0000e+00  2.6800e+53 -1.2820e+01 35729.924/
PLOG /			2.0000e+00  3.6400e+52 -1.2460e+01 36126.912/
PLOG /			5.0000e+00  1.0400e+51 -1.1890e+01 36476.099/
PLOG /			1.0000e+01  4.4000e+49 -1.1400e+01 36700.048/
PLOG /			1.0000e+02  3.8000e+44 -9.6300e+00 37599.904/
C2H2+H(+M)<=>C2H3(+M)			 1.709e+10  1.270  2.70793e+03
	TROE / 2.122e-01  1.000e+00 -1.021e+04 /
	LOW / 6.340e+31  -4.660e+00  3781.071/
C2H6/3.00/   CO/1.75/   AR/0.70/   H2/2.00/   H2O/12.00/   CH4/2.00/   CO2/3.60/   
C2H2+HO2=>CH2O+H+CO			 5.770e+16  -1.700  20030.115
PLOG /			1.0000e-02  9.1000e+13 -1.1700e+00 13750.000/
PLOG /			1.0000e-02  1.9700e+01 2.5600e+00 7382.003/
PLOG /			1.0000e-01  9.9400e+00 2.6400e+00 7253.011/
PLOG /			1.0000e-01  3.6300e+13 -1.0500e+00 13520.005/
PLOG /			3.1600e-01  6.0500e-06 4.3400e+00 4525.000/
PLOG /			3.1600e-01  1.6100e+10 -0.0000e+00 11720.005/
PLOG /			1.0000e+00  7.7700e+102 -2.4180e+01 138599.904/
PLOG /			1.0000e+00  1.8800e+08 6.0000e-01 10850.000/
PLOG /			3.1600e+00  1.2200e+16 -1.7500e+00 15179.995/
PLOG /			3.1600e+00  8.2600e+00 2.6900e+00 8025.000/
PLOG /			1.0000e+01  1.7100e+36 -7.7700e+00 26969.885/
PLOG /			1.0000e+01  2.3000e+07 9.1000e-01 11709.990/
PLOG /			3.1600e+01  4.1400e+28 -5.3000e+00 25130.019/
PLOG /			3.1600e+01  4.1900e+04 1.7000e+00 11250.000/
PLOG /			1.0000e+02  5.7700e+16 -1.7000e+00 20029.995/
PLOG /			1.0000e+02  1.0100e-05 4.3100e+00 6828.991/
C2H2+HO2<=>CH2O+HCO			 2.470e+16  -1.700  20030.115
PLOG /			1.0000e-02  3.9000e+13 -1.1700e+00 13750.000/
PLOG /			1.0000e-02  8.4300e+00 2.5600e+00 7382.003/
PLOG /			1.0000e-01  4.2600e+00 2.6400e+00 7253.011/
PLOG /			1.0000e-01  1.5600e+13 -1.0500e+00 13520.005/
PLOG /			3.1600e-01  2.5900e-06 4.3400e+00 4525.000/
PLOG /			3.1600e-01  6.9000e+09 -0.0000e+00 11720.005/
PLOG /			1.0000e+00  3.3300e+102 -2.4180e+01 138599.904/
PLOG /			1.0000e+00  8.0700e+07 6.0000e-01 10850.000/
PLOG /			3.1600e+00  5.2200e+15 -1.7500e+00 15179.995/
PLOG /			3.1600e+00  3.5400e+00 2.6900e+00 8025.000/
PLOG /			1.0000e+01  7.3200e+35 -7.7700e+00 26969.885/
PLOG /			1.0000e+01  9.8400e+06 9.1000e-01 11709.990/
PLOG /			3.1600e+01  1.7800e+28 -5.3000e+00 25130.019/
PLOG /			3.1600e+01  1.7900e+04 1.7000e+00 11250.000/
PLOG /			1.0000e+02  2.4700e+16 -1.7000e+00 20029.995/
PLOG /			1.0000e+02  4.3200e-06 4.3100e+00 6828.991/
C2H2+HO2<=>CO+CH3O			 1.170e+18  -2.570  22359.943
PLOG /			1.0000e-02  3.5400e+11 0.0000e+00 49510.038/
PLOG /			1.0000e-02  2.8900e+04 1.2300e+00 9903.011/
PLOG /			1.0000e-01  2.7800e+08 1.0000e-02 11920.005/
PLOG /			1.0000e-01  9.6700e-07 4.1500e+00 5172.992/
PLOG /			3.1600e-01  8.0600e+07 1.8000e-01 11650.000/
PLOG /			3.1600e-01  1.8400e-08 4.6200e+00 4516.993/
PLOG /			1.0000e+00  8.9400e+69 -1.5850e+01 102500.000/
PLOG /			1.0000e+00  5.3800e+05 8.6000e-01 10700.000/
PLOG /			3.1600e+00  5.6600e+12 -1.2500e+00 14570.005/
PLOG /			3.1600e+00  5.3700e-04 3.4200e+00 7217.997/
PLOG /			1.0000e+01  3.3000e+23 -4.4500e+00 21209.990/
PLOG /			3.1600e+01  2.4300e+22 -3.9600e+00 22650.000/
PLOG /			3.1600e+01  8.1100e+00 2.3000e+00 10559.990/
PLOG /			1.0000e+02  1.1700e+18 -2.5700e+00 22359.990/
PLOG /			1.0000e+02  6.8600e-04 3.4200e+00 9328.991/
C2H2+OH<=>CH2CO+H			 1.578e+03  2.560  -844.407
PLOG /			1.0000e-02  1.5780e+03 2.5600e+00 -844.500/
PLOG /			2.5000e-02  1.5180e+04 2.2800e+00 -292.101/
PLOG /			1.0000e-01  3.0170e+05 1.9200e+00 598.100/
PLOG /			1.0000e+00  7.5280e+06 1.5500e+00 2105.999/
PLOG /			1.0000e+01  5.1010e+06 1.6500e+00 3400.000/
PLOG /			1.0000e+02  1.4570e+04 2.4500e+00 4477.008/
C2H2+S-CH2<=>C2H2+T-CH2			 4.000e+13  0.000   0.000
C2H2+HO2<=>CO2+CH3			 1.710e+15  -1.800  20369.981
PLOG /			1.0000e-02  1.1500e-07 4.3100e+00 4614.006/
PLOG /			1.0000e-02  2.0100e+08 0.0000e+00 11790.010/
PLOG /			1.0000e-01  1.1000e-07 4.3200e+00 4621.989/
PLOG /			1.0000e-01  2.0100e+08 0.0000e+00 11779.995/
PLOG /			3.1600e-01  1.7500e+142 -3.5040e+01 188700.048/
PLOG /			3.1600e-01  1.5500e+05 9.5000e-01 10200.000/
PLOG /			1.0000e+00  3.9600e+84 -1.9800e+01 119799.952/
PLOG /			1.0000e+00  1.3800e+06 6.8000e-01 10809.990/
PLOG /			3.1600e+00  5.0200e+13 -1.6000e+00 14979.995/
PLOG /			3.1600e+00  9.2900e-03 3.0000e+00 7659.011/
PLOG /			1.0000e+01  8.5600e+28 -6.1500e+00 24030.115/
PLOG /			1.0000e+01  1.8600e+04 1.2600e+00 11229.995/
PLOG /			3.1600e+01  1.2800e+27 -5.4200e+00 25380.019/
PLOG /			3.1600e+01  2.8900e+02 1.7900e+00 11240.010/
PLOG /			1.0000e+02  1.7100e+15 -1.8000e+00 20370.005/
PLOG /			1.0000e+02  3.9000e-07 4.2100e+00 7314.006/
C2H2+HO2<=>CH2CHO+O			 5.780e+18  -2.090  24349.904
PLOG /			1.0000e-02  5.5000e+06 1.1900e+00 12879.995/
PLOG /			1.0000e-02  2.9400e-04 4.1600e+00 7735.994/
PLOG /			1.0000e-01  1.1600e+08 7.7000e-01 13600.000/
PLOG /			1.0000e-01  6.1400e-03 3.8100e+00 8394.001/
PLOG /			3.1600e-01  1.2000e+07 1.0900e+00 13050.000/
PLOG /			3.1600e-01  5.4400e-04 4.0900e+00 8044.001/
PLOG /			1.0000e+00  3.0200e+07 9.8000e-01 13309.990/
PLOG /			1.0000e+00  2.4800e-04 4.1900e+00 8203.011/
PLOG /			3.1600e+00  1.9800e+74 -1.6330e+01 109200.048/
PLOG /			3.1600e+00  6.5700e+04 1.8500e+00 12359.990/
PLOG /			1.0000e+01  7.5000e+14 -1.1700e+00 18350.000/
PLOG /			1.0000e+01  2.9200e-01 3.3800e+00 10590.010/
PLOG /			3.1600e+01  8.6300e+18 -2.2700e+00 22229.995/
PLOG /			3.1600e+01  1.9500e+00 3.1700e+00 11740.010/
PLOG /			1.0000e+02  5.7800e+18 -2.0900e+00 24349.904/
PLOG /			1.0000e+02  1.1000e-01 3.5200e+00 11979.995/
C2H2+OH<=>CH3+CO			 4.757e+05  1.680  -329.828
PLOG /			1.0000e-02  4.7570e+05 1.6800e+00 -329.799/
PLOG /			2.5000e-02  4.3720e+06 1.4000e+00 226.500/
PLOG /			1.0000e-01  7.6480e+07 1.0500e+00 1115.000/
PLOG /			1.0000e+00  1.2770e+09 7.3000e-01 2578.991/
PLOG /			1.0000e+01  4.3120e+08 9.2000e-01 3735.994/
PLOG /			1.0000e+02  8.2500e+05 1.7700e+00 4696.989/
! C2H3 reactions
C2H3+O2<=>CH2CO+OH			 1.660e+10  0.360  12010.038
PLOG /			1.0000e-02  8.6600e+02 2.4100e+00 6060.994/
PLOG /			1.0000e-02  1.8200e-01 3.1200e+00 1330.999/
PLOG /			1.0000e-01  8.9100e+02 2.4100e+00 6078.011/
PLOG /			1.0000e-01  2.0700e-01 3.1100e+00 1383.000/
PLOG /			3.1600e-01  9.4300e+02 2.4000e+00 6111.998/
PLOG /			3.1600e-01  2.7100e-01 3.0800e+00 1495.999/
PLOG /			1.0000e+00  1.0600e+03 2.3900e+00 6179.995/
PLOG /			1.0000e+00  5.2600e-01 3.0100e+00 1777.000/
PLOG /			3.1600e+00  1.0900e+03 2.3800e+00 6178.991/
PLOG /			3.1600e+00  1.3700e+00 2.9000e+00 2225.000/
PLOG /			1.0000e+01  1.3900e+03 2.3600e+00 6073.996/
PLOG /			1.0000e+01  4.1900e-01 2.9300e+00 2052.000/
PLOG /			3.1600e+01  2.4900e+06 1.4200e+00 8479.995/
PLOG /			3.1600e+01  1.1900e-04 4.2100e+00 2043.000/
PLOG /			1.0000e+02  1.6600e+10 3.6000e-01 12009.990/
PLOG /			1.0000e+02  1.3000e-03 3.9700e+00 3414.006/
C2H3+CH2O<=>C2H4+HCO			 1.650e+01  3.170  9399.857
PLOG /			1.0000e-03  1.1100e+07 1.0900e+00 1807.199/
PLOG /			1.0000e-02  2.4700e+07 9.9300e-01 1994.900/
PLOG /			1.0000e-01  2.4700e+08 7.0400e-01 2596.200/
PLOG /			1.0000e+00  1.4200e+10 2.0900e-01 3934.202/
PLOG /			1.0000e+01  3.4500e+13 -7.2600e-01 6944.312/
PLOG /			1.0000e+02  3.3100e+14 -8.6600e-01 10965.703/
PLOG /			1.0000e+03  1.6500e+01 3.1700e+00 9399.809/
C2H3+O2<=>CH2O+HCO			 3.030e+33  -6.280  16000.000
PLOG /			1.0000e-02  2.7700e+36 -7.6000e+00 12640.010/
PLOG /			1.0000e-02  5.0400e+15 -1.2800e+00 515.301/
PLOG /			1.0000e-01  2.7000e+36 -7.6000e+00 12609.990/
PLOG /			1.0000e-01  5.1000e+15 -1.2800e+00 513.000/
PLOG /			3.1600e-01  2.1700e+36 -7.5700e+00 12490.010/
PLOG /			3.1600e-01  5.3400e+15 -1.2900e+00 520.600/
PLOG /			1.0000e+00  3.0300e+35 -7.3200e+00 11820.005/
PLOG /			1.0000e+00  6.7600e+15 -1.3100e+00 645.700/
PLOG /			3.1600e+00  1.5900e+36 -7.4700e+00 12459.990/
PLOG /			3.1600e+00  1.0500e+16 -1.3600e+00 1065.999/
PLOG /			1.0000e+01  5.7600e+35 -7.2000e+00 13429.995/
PLOG /			1.0000e+01  2.8400e+15 -1.1800e+00 1429.001/
PLOG /			3.1600e+01  3.5400e+20 -2.5700e+00 5578.011/
PLOG /			3.1600e+01  1.1400e+69 -1.9230e+01 14759.990/
PLOG /			1.0000e+02  3.0300e+33 -6.2800e+00 16000.000/
PLOG /			1.0000e+02  4.6800e+10 1.9000e-01 830.600/
C2H3+O<=>C2H2+OH			 1.030e+12  0.200  -427.103
2C2H3<=>C2H2+C2H4			 1.450e+13  0.000   0.000
C2H3+O2<=>CH2CHO+O			 9.270e+25  -3.800  13909.895
PLOG /			1.0000e-02  7.1600e+20 -2.6700e+00 6741.993/
PLOG /			1.0000e-02  1.2400e+10 6.2000e-01 -277.600/
PLOG /			1.0000e-01  7.0200e+20 -2.6700e+00 6713.002/
PLOG /			1.0000e-01  1.2900e+10 6.2000e-01 -247.701/
PLOG /			3.1600e-01  8.9700e+20 -2.7000e+00 6723.996/
PLOG /			3.1600e-01  1.5100e+10 6.0000e-01 -162.500/
PLOG /			1.0000e+00  6.4500e+20 -2.6500e+00 6489.006/
PLOG /			1.0000e+00  1.8400e+10 5.8000e-01 38.400/
PLOG /			3.1600e+00  4.0900e+20 -2.5300e+00 6405.999/
PLOG /			3.1600e+00  8.8600e+09 6.7000e-01 248.000/
PLOG /			1.0000e+01  1.6000e+23 -3.2200e+00 8696.989/
PLOG /			1.0000e+01  6.6700e+09 7.2000e-01 778.100/
PLOG /			3.1600e+01  2.8500e+25 -3.7700e+00 11529.995/
PLOG /			3.1600e+01  1.4300e+09 9.2000e-01 1219.001/
PLOG /			1.0000e+02  9.2700e+25 -3.8000e+00 13909.990/
PLOG /			1.0000e+02  7.1400e+07 1.2800e+00 1400.999/
C2H3+H<=>C2H4			 1.250e+19  -1.592  1961.042
PLOG /			1.0000e-03  1.1935e+26 -5.0210e+00 3089.747/
PLOG /			1.0000e-02  1.0535e+27 -5.0000e+00 3073.375/
PLOG /			1.0000e-01  2.1070e+28 -5.0850e+00 3485.779/
PLOG /			1.0000e+00  8.8200e+29 -5.2360e+00 5080.163/
PLOG /			1.0000e+01  3.6239e+22 -2.7910e+00 2636.998/
PLOG /			1.0000e+02  1.2495e+19 -1.5920e+00 1961.090/
C2H3+C2H2+M<=>N-C4H5+M			 3.288e+07  -12.910  72.419
	
2C2H3<=>N-C4H5+H			 2.400e+20  -2.040  15360.899
PLOG /			2.6300e-02  1.1000e+24 -3.2800e+00 12395.005/
PLOG /			1.2000e-01  4.6000e+24 -3.3800e+00 14650.000/
PLOG /			1.0000e+00  2.4000e+20 -2.0400e+00 15360.994/
C2H3+CH3<=>A-C3H5+H			 5.160e+28  -4.030  23799.952
PLOG /			1.0000e-02  4.1200e+29 -4.9500e+00 8000.000/
PLOG /			1.0000e-02  5.7300e+15 -7.7000e-01 1195.901/
PLOG /			1.0000e-01  4.8600e+30 -5.0300e+00 11300.000/
PLOG /			1.0000e-01  2.0600e+13 -7.4000e-02 1428.700/
PLOG /			1.0000e+00  5.3000e+29 -4.5700e+00 14400.000/
PLOG /			1.0000e+00  4.4800e+10 6.0000e-01 1421.599/
PLOG /			1.0000e+01  1.3200e+30 -4.5400e+00 19300.000/
PLOG /			1.0000e+01  4.1000e+06 1.7100e+00 1056.900/
PLOG /			1.0000e+02  5.1600e+28 -4.0300e+00 23800.000/
PLOG /			1.0000e+02  1.3700e-01 3.9100e+00 -353.549/
C2H3+OH<=>C2H2+H2O			 5.000e+12  0.000   0.000
C2H3+O2<=>CO2+CH3			 1.210e+32  -6.320  16190.010
PLOG /			1.0000e-02  2.3700e+35 -7.7600e+00 12629.995/
PLOG /			1.0000e-02  6.2700e+13 -1.1600e+00 406.300/
PLOG /			1.0000e-01  1.7300e+35 -7.7200e+00 12520.005/
PLOG /			1.0000e-01  6.2400e+13 -1.1600e+00 401.401/
PLOG /			3.1600e-01  4.4700e+34 -7.5500e+00 12140.010/
PLOG /			3.1600e-01  6.1200e+13 -1.1600e+00 397.000/
PLOG /			1.0000e+00  7.2500e+31 -6.7000e+00 10440.010/
PLOG /			1.0000e+00  5.3200e+13 -1.1400e+00 446.699/
PLOG /			3.1600e+00  3.6300e+35 -7.7500e+00 12829.995/
PLOG /			3.1600e+00  1.4500e+14 -1.2600e+00 987.701/
PLOG /			1.0000e+01  2.0900e+35 -7.5300e+00 14050.000/
PLOG /			1.0000e+01  5.0200e+13 -1.1100e+00 1409.001/
PLOG /			3.1600e+01  3.8400e+18 -2.4400e+00 5408.007/
PLOG /			3.1600e+01  1.4000e+70 -2.0110e+01 15429.995/
PLOG /			1.0000e+02  1.2100e+32 -6.3200e+00 16190.010/
PLOG /			1.0000e+02  9.2100e+08 2.5000e-01 855.301/
C2H3+CH3<=>C2H2+CH4			 2.050e+13  0.000   0.000
C2H3+H<=>C2H2+H2			 3.000e+13  0.000   0.000
C2H3+HCO<=>C2H4+CO			 9.000e+13  0.000   0.000
C2H3+O2=>CH2O+H+CO			 7.070e+33  -6.280  16000.000
PLOG /			1.0000e-02  6.4700e+36 -7.6000e+00 12640.010/
PLOG /			1.0000e-02  1.1800e+16 -1.2800e+00 515.301/
PLOG /			1.0000e-01  6.2900e+36 -7.6000e+00 12609.990/
PLOG /			1.0000e-01  1.1900e+16 -1.2800e+00 513.000/
PLOG /			3.1600e-01  5.0600e+36 -7.5700e+00 12490.010/
PLOG /			3.1600e-01  1.2600e+16 -1.2900e+00 520.600/
PLOG /			1.0000e+00  7.0700e+35 -7.3200e+00 11820.005/
PLOG /			1.0000e+00  1.5800e+16 -1.3100e+00 645.700/
PLOG /			3.1600e+00  3.7200e+36 -7.4700e+00 12459.990/
PLOG /			3.1600e+00  2.4400e+16 -1.3600e+00 1065.999/
PLOG /			1.0000e+01  1.3400e+36 -7.2000e+00 13429.995/
PLOG /			1.0000e+01  6.6400e+15 -1.1800e+00 1429.001/
PLOG /			3.1600e+01  8.2600e+20 -2.5700e+00 5578.011/
PLOG /			3.1600e+01  2.6600e+69 -1.9230e+01 14759.990/
PLOG /			1.0000e+02  7.0700e+33 -6.2800e+00 16000.000/
PLOG /			1.0000e+02  1.0900e+11 1.9000e-01 830.600/
C2H3+HCO<=>C2H3CHO			 1.800e+13  0.000   0.000
C2H3+O2<=>CO+CH3O			 5.790e+32  -6.450  16809.990
PLOG /			1.0000e-02  8.1900e+18 -2.6600e+00 3201.004/
PLOG /			1.0000e-02  1.2900e+09 1.8000e-01 -1717.000/
PLOG /			1.0000e-01  4.0600e+14 -1.3200e+00 885.801/
PLOG /			1.0000e-01  5.9900e+11 -2.9300e+00 -9564.006/
PLOG /			1.0000e+00  1.0300e+11 -3.3000e-01 -747.801/
PLOG /			1.0000e+00  5.7700e+21 -3.5400e+00 4771.989/
PLOG /			3.1600e+00  1.8900e+12 -3.0000e+00 -8995.005/
PLOG /			3.1600e+00  4.9900e+15 -1.6200e+00 1849.001/
PLOG /			1.0000e+01  1.9300e+24 -5.6300e+00  1.800/
PLOG /			1.0000e+01  9.3300e+16 -1.9600e+00 3323.996/
PLOG /			3.1600e+01  1.1000e+18 -2.2200e+00 5178.011/
PLOG /			3.1600e+01  1.0200e+72 -2.0690e+01 15859.990/
PLOG /			1.0000e+02  5.7900e+32 -6.4500e+00 16809.990/
PLOG /			1.0000e+02  1.1000e+09 3.1000e-01 1024.001/
C2H3+H2O2<=>C2H4+HO2			 1.210e+10  0.000  -595.124
2C2H3<=>C3H3+CH3			 1.800e+13  0.000   0.000
C2H3+O<=>CH2CHO			 1.030e+13  0.210  -427.820
C2H3+O2<=>C2H2+HO2			 1.060e+17  -1.450  12229.924
PLOG /			1.0000e-02  1.0800e+07 1.2800e+00 3321.989/
PLOG /			1.0000e-02  4.7600e+01 2.7500e+00 -796.401/
PLOG /			1.0000e-01  7.7500e+06 1.3300e+00 3215.989/
PLOG /			1.0000e-01  5.1600e+01 2.7300e+00 -768.301/
PLOG /			3.1600e-01  1.2100e+07 1.2700e+00 3310.994/
PLOG /			3.1600e-01  5.5500e+01 2.7300e+00 -658.499/
PLOG /			1.0000e+00  2.1500e+07 1.1900e+00 3366.993/
PLOG /			1.0000e+00  4.6000e+01 2.7600e+00 -492.801/
PLOG /			3.1600e+00  1.1300e+08 1.0000e+00 3695.005/
PLOG /			3.1600e+00  3.7500e+00 3.0700e+00 -600.999/
PLOG /			1.0000e+01  1.3100e+11 1.2000e-01 5871.989/
PLOG /			1.0000e+01  5.4800e+00 3.0700e+00 85.700/
PLOG /			3.1600e+01  1.1900e+09 8.2000e-01 5616.993/
PLOG /			3.1600e+01  4.4700e+08 0.0000e+00 955.000/
PLOG /			1.0000e+02  1.0600e+17 -1.4500e+00 12229.995/
PLOG /			1.0000e+02  2.0200e+01 2.9400e+00 1847.000/
C2H3+CH2O<=>C2H3CHO+H			 6.010e+05  2.090  7895.554
PLOG /			1.0000e-03  2.6000e+04 2.2600e+00 1510.301/
PLOG /			1.0000e-02  5.1300e+04 2.1700e+00 1675.500/
PLOG /			1.0000e-01  3.9900e+05 1.9100e+00 2218.301/
PLOG /			1.0000e+00  1.7500e+07 1.4500e+00 3428.011/
PLOG /			1.0000e+01  1.3500e+09 9.3300e-01 5172.992/
PLOG /			1.0000e+02  2.2400e+11 3.5700e-01 8001.291/
PLOG /			1.0000e+03  6.0100e+05 2.0900e+00 7895.602/
! C2H4 reactions
C2H4+OH<=>C2H3+H2O			 1.310e-01  4.200  -860.421
C2H4+C2H3<=>C2H5+C2H2			 2.990e+00  3.440  28760.038
PLOG /			1.0000e-02  9.9600e+12 -1.1000e+00 16600.000/
PLOG /			1.0000e-02  4.5000e+07 8.5000e-01 20100.000/
PLOG /			1.0000e-01  1.5500e+16 -1.8000e+00 20890.010/
PLOG /			1.0000e-01  5.5200e+28 -4.7500e+00 45400.096/
PLOG /			1.0000e+00  1.9400e+34 -7.0300e+00 33130.019/
PLOG /			1.0000e+00  1.2600e+08 7.8000e-01 21820.005/
PLOG /			1.0000e+01  9.3900e+33 -6.5200e+00 39809.990/
PLOG /			1.0000e+01  1.8000e+01 2.8000e+00 23159.990/
PLOG /			1.0000e+02  7.5600e+03 2.5100e+00 31520.076/
PLOG /			1.0000e+02  3.3800e-03 4.4000e-01 14179.995/
C2H4+CH3<=>C2H3+CH4			 8.130e-05  4.417  8835.803
S-CH2+C2H4<=>A-C3H5+H			 6.510e+26  -3.580  18900.096
PLOG /			1.0000e-02  8.2000e+19 -2.0600e+00 1150.000/
PLOG /			1.0000e-02  1.0800e+07 1.6200e+00 -3174.594/
PLOG /			1.0000e-01  2.2700e+21 -2.4400e+00 2650.000/
PLOG /			1.0000e-01  1.3700e+05 2.1500e+00 -3799.211/
PLOG /			1.0000e+00  4.4400e+35 -6.5500e+00 13900.000/
PLOG /			1.0000e+00  3.8900e+14 -4.2000e-01 1237.600/
PLOG /			1.0000e+01  1.1800e+28 -4.0900e+00 14000.000/
PLOG /			1.0000e+01  2.4500e+10 6.7000e-01 750.930/
PLOG /			1.0000e+02  6.5100e+26 -3.5800e+00 18900.000/
PLOG /			1.0000e+02  1.8100e+02 2.9700e+00 -746.030/
C2H4+CH3<=>C2H3+CH4			 9.756e+02  2.947  15147.945
C2H4(+M)=>C2H2+H2(+M)			 1.800e+13  0.000  7.60000e+04
	LOW / 1.500e+15  0.000e+00  55440.010/
	
C2H4+H<=>C2H3+H2			 6.189e+06  2.310  12829.828
C2H4+O<=>CH2CHO+H			 3.005e+10  0.795  1952.438
C2H4+C2H3<=>A-C3H4+CH3			 7.240e-05  4.910  20700.048
PLOG /			1.0000e-02  4.8000e+07 8.9000e-01 13200.000/
PLOG /			1.0000e-02  3.8800e+09 5.9000e-01 22290.010/
PLOG /			1.0000e-01  1.2800e+32 -6.5600e+00 25030.115/
PLOG /			1.0000e-01  2.7400e+06 1.4100e+00 15120.005/
PLOG /			1.0000e+00  1.3700e+17 -1.5900e+00 22700.000/
PLOG /			1.0000e+00  3.3000e+143 -4.7140e+01 40859.943/
PLOG /			1.0000e+01  3.2100e+30 -5.3000e+00 34390.057/
PLOG /			1.0000e+01  1.8500e-04 4.4100e+00 16470.005/
C2H4+H(+M)<=>C2H5(+M)			 9.569e+08  1.463  1.35492e+03
	TROE / -5.690e-01  2.990e+02 -9.147e+03  1.524000e+02/
	LOW / 1.419e+39  -6.642e+00  5768.881/
C2H6/3.00/   CO/1.50/   CO2/2.00/   CH4/2.00/   H2/2.00/   H2O/6.00/   AR/0.70/   
C2H4+OH<=>CH3+CH2O			 2.760e+13  -0.500  11455.067
PLOG /			1.0000e-02  5.3500e+00 2.9200e+00 -1732.701/
PLOG /			2.5000e-02  3.1900e+01 2.7100e+00 -1172.299/
PLOG /			1.0000e-01  5.5500e+02 2.3600e+00 -180.800/
PLOG /			1.0000e+00  1.7800e+05 1.6800e+00 2060.500/
PLOG /			1.0000e+01  2.3700e+09 5.6000e-01 6006.692/
PLOG /			1.0000e+02  2.7600e+13 -5.0000e-01 11455.091/
C2H4+O<=>CH2CO+H2			 2.118e+16  -1.617  2859.704
S-CH2+C2H4<=>C2H3+CH3			 7.360e+29  -4.280  23799.952
PLOG /			1.0000e-02  1.7700e+19 -1.9400e+00 6790.010/
PLOG /			1.0000e-02  4.3000e+12 1.9000e-01 -110.410/
PLOG /			1.0000e-01  1.6800e+19 -1.8000e+00 4309.990/
PLOG /			1.0000e-01  2.2600e+11 5.4000e-01 47.810/
PLOG /			1.0000e+00  4.1600e+24 -3.1900e+00 9759.990/
PLOG /			1.0000e+00  4.9200e+09 1.0200e+00 599.771/
PLOG /			1.0000e+01  7.8900e+24 -3.0700e+00 13900.000/
PLOG /			1.0000e+01  1.4700e+08 1.3300e+00 1228.401/
PLOG /			1.0000e+02  7.3600e+29 -4.2800e+00 23800.000/
PLOG /			1.0000e+02  8.1100e+10 5.5000e-01 5506.501/
C2H4+O2=>CH3+CO2+H			 4.900e+12  0.420  75800.669
C2H4+O<=>T-CH2+CH2O			 5.775e+06  1.991  2859.704
C2H4+O2<=>C2H3+HO2			 4.220e+13  0.000  62100.860
C2H4+O<=>CH3+HCO			 5.708e+17  -1.713  2887.667
! C2H5 reactions
C2H5+H<=>C2H4+H2			 2.000e+12  0.000   0.000