!
! ITV PAH CHEMISTRY 
!
! R. Langer, Q. Mao, H. Pitsch
! Institute for Combustion Technology, RWTH Aachen University, 52056 Aachen, Germany
! "A detailed kinetic model for aromatics formation from small hydrocarbon and gasoline surrogate fuel combustion"
! published in Combustion and Flame 2022
!
!
! This mechanism has been validated for the oxidation of following species
!    
! Gasoline surrogate species: 
! n-Heptane:                N-C7H16
! i-Octane:                 I-C8H18
! Toluene:                  A1CH3
! Ethanol:                  C2H5OH
!    
! C0-C4 Species:
! Hydrogen/Carbon monoxide: H2/CO
! Methane:                  CH4
! Acetylene:                C2H2
! Ethylene:                 C2H4
! Ethane:                   C2H6
! Propyne:                  P-C3H4
! Allene:                   A-C3H4
! Propene:                  C3H6
! Propane:                  C3H8 (Only High Temperature Chemistry)
! 1,3-Butadiene:            C4H6 (Only High Temperature Chemistry)
!    
! Aromatic species:
! Benzene:                  A1     
! Toluene:                  A1CH3
! 1-Methylnaphtalene:       A2CH3
! Ethylbenzene:             A1C2H5
! Styrene:                  A1C2H3
! m-xylene:                 A1CH3CH3
!    
! Additional species 
! Methanol:                 CH3OH 
!                           NOx (validated with the model of Cai et al.)
     
ELEMENTS
N  AR C  O  H  HE 
END  
SPECIES

!!!! ADDED FOR THE EXTRA MODEL !!!!
C2H4O2	CH3COOH	GLIET	NC3H7OH	C3H6O2	ACETOL	C3H7OOH	C3H4O3
C4H3O	C4H7OH	CH3CHCH2CH2OH	CH3CH2CHOCH3	CH2CHCH2OHCH3	CH3CHCHOHCH3	CH2CH2CHOHCH3	C4H6O2
MACRIL	C5H8	IC5H10	MEFU2	IC5H9OH	IC4H9CHO	RIPENTOHC	C5H4O2
C5H8O4	CYC6H8	DMF-3YL	DMF	C6H6O3	C6H8O4	C6H10O5	RCRESOLC
C8H9	BZFUR	NPBENZ
!!!! END OF EXTRA MODEL INSERT !!!!

     
! Base chemistry C0-C4
N2                AR                H                 O2                O       
OH                H2                H2O               HE                HO2     
H2O2              CO                CO2               HCO               C       
CH                T-CH2             CH3               CH2O              HCCO    
C2H               CH2CO             C2H2              S-CH2             CH3OH   
CH2OH             CH3O              CH4               CH3O2             C2H3    
C2H4              C2H5              HCCOH             CH2CHO            CH3CHO  
H2C2              C2H5O             N-C3H7            C2H6              C3H8    
C3H6              C3H3              P-C3H4            A-C3H4            S-C3H5  
N-C4H3            C2H3CHO           A-C3H5            C2O               C4H4    
C3H2              C4H2              I-C4H3            T-C3H5            C3H5O   
C4H               C8H2              C6H2              C4H6              N-C4H5  
I-C4H5            A1                C6H3              L-C6H4            C6H5OO
!! work around for C4H6+HO2 pathway
C4H71X3           
CVC(COOJ)COOH     
! 
C2H5CHO           C2H5O2H           C2H5CO            CH3CHCO           CH3COCH2
CH2CH2CHO         N-C3H7O           CH3CO3            CH3CHCHO          I-C3H5OH
CH2CCH2OH         A-C3H5OOH         C3H6OH2X1         I-C3H7            CH2O2H  
C4H8X1            CH3COCHO          CH3COCH2O         CH3COCH3          C3KET21

!! species added by rlanger (following the NUIG 1.1 model)
HCOH              CHCHO             CHOCHO            C2H2OH            !HOCHCHO   
HOCHO             C2H3OOH           C2H3OO            C2H3OH            HOCO      
C2H4O1-2          CH2COOH           C3H6O1-2          C3H6O1-3          CJCYCCO
CCYCCJO           CH3OCHCH2         SC3H5OH           CCYCCO-T1         
CH2CHOCH2         C3H6OH1-1         C3H6OH1-3         C3H6OH1-2         C3H5OH    
CC3H6             CC3H4             S-C3H2            S-H2CCC           C3H2C  
CH3CCO            C3H3O             C2H3CO            C3H3O2H           C2HCHO
C3H4O1-2          CH2CO2            CH3COH            SC3H4OH           
CH3C(OH)CH        PC3H4OH-2         CH2COHCO          SC2H2OH           
PC3H4OH-1         CH2CHCHOH         CH3CCHO           SC3H5OO           C3H5O31
C3H5O32           HOCH2CO           CH2COHCH2OOH      CH2COHCHO         
CH2(OH)OCH2       CH2COHCH2O        CH3COCH           TC3H5OO           
CH2CHOCHO         CH2CCO            CH2CHOCO

! Methanol and Ethanol
C2H5OH            CH3CHOH      
CH3O2H            O2CHO             HO2CHO            OCHO              C2H3O1-2
CH3CO             C2H4O2H           C2H5O2                                   

!!!!!!!!!!!!!!!!!!!!!!!!!!!!!!!!
!!!! n-Heptane begin !!!!!!!!!!!
!!!!!!!!!!!!!!!!!!!!!!!!!!!!!!!!

N-C7H16      

! R
C7H15X1           C7H15X2           C7H15X3           C7H15X4           

! Alkene
C7H14X1           C7H14X2           C7H14X3           

! Alkeny radical
C7H131X3          C7H131X4          C7H131X5          C7H131X6          C7H131X7
C7H132X4          C7H132X5          C7H132X6          C7H132X7          C7H133X1
C7H133X5          C7H133X6          C7H133X7          

! 
C7H13O1X3         C7H13O2X4         C7H13O3X5           

! RO2
C7H15O2X1         C7H15O2X2         C7H15O2X3         C7H15O2X4         

! RO
C7H15OX1          C7H15OX2          C7H15OX3          C7H15OX4          

! QOOH
C7H14OOH1X2       C7H14OOH2X3       C7H14OOH3X2       C7H14OOH3X4       
C7H14OOH4X3       C7H14OOH4X1       C7H14OOH3X1       C7H14OOH1X4       
C7H14OOH3X6       C7H14OOH2X5       C7H14OOH3X5       C7H14OOH2X4       
C7H14OOH1X3       C7H14OOH4X2       C7H14OOH1X5       C7H14OOH2X6       
C7H14OOH3X7       

! ROOH
C7H15O2HX1        C7H15O2HX2        C7H15O2HX3        

! Cyclic ether
C7H14O1X2         C7H14O2X3         C7H14O3X4         C7H14O1X3         
C7H14O2X4         C7H14O3X5         C7H14O1X4         C7H14O2X5         
C7H14O1X5         C7H14O2X6         

! O2QOOH
C7H14OOH3X1O2     C7H14OOH4X1O2     C7H14OOH1X3O2     C7H14OOH1X4O2     
C7H14OOH1X5O2     C7H14OOH2X4O2     C7H14OOH2X5O2     C7H14OOH2X6O2     
C7H14OOH3X5O2     C7H14OOH3X6O2     C7H14OOH3X7O2     C7H14OOH4X2O2     

! KET
NC7KET13          NC7KET14          NC7KET24          NC7KET35          NC7KET42          
NC7KET26          NC7KET37          NC7KET31          NC7KET25          NC7KET36          

! POOH
C7POOH15X7        
C7POOH25X7        C7POOH14X2        C7POOH14X6        C7POOH15X3        
C7POOH25X3        C7POOH26X4        C7POOH25X4        C7POOH14X3        

! Hydroperoxyl radical from POOH
C7H131X4OOH       C7H132X5OOH       C7H133X6OOH       C7H133X1OOH       

! Cyclic ether from POOH
C7O24X1OOH        C7O46X1OOH        C7O35X1OOH        C7O57X1OOH        
C7O35X2OOH        C7O57X2OOH        C7O46X2OOH        C7O46X3OOH         

! Ket products
CH2CH2COCH3       C3H6COCH3X1       NXC4H9COCH2       C2H5COCH2         
C2H5COC2H4P       C3H6COC2H5X1      

! Cyclic ether products
N-C3H7COCH2       C2H3COCH3         C2H5COC2H3        
NXC4H9CO          N-C3H7CO          C2H5CHCO                  

! Aldehyde
N-C3H7CHO         NXC4H9CHO

! intermediate species
! C6
C6H13X1           C6H12X1           C6H111X3 
! C5
C5H11X1           C5H11X2           C5H10X1           C5H10X2           C5H91X1     
C5H91X3           C5H91X4           C5H91X5           C5H92X5           C5H81X3 
C5H11OX1          C5H9O1X3          C5H11O2X1  
!C4
C4H10             PXC4H9            SXC4H9            C4H8X2            C4H71X1
C4H71X2           C4H71X4           C4H7O             PXC4H9O 
PXC4H8OH          PXC4H9O2          C4H8OOH1X3        C4H8OOH1X3O2      C4H8O1X3
NC4KET13
!
N-C3H7O2          C4H7CHO-2         C3H6OOH1X2        C3KET13 
C3H6OOH1X3O2      C3H6OOH1X3        C3H6CHOX1         C3H6CHOX2         C4H72-2         
N-C3H7COCH3       C2H5COCH3         CH3COCH2O2        CH3COCHOH         
C3H6CHOX3         C4H63,1-2OH   
      
!!!!!!!!!!!!!!!!!!!!!!!!!!!!!!!!
!!!! n-Heptane end   !!!!!!!!!!!
!!!!!!!!!!!!!!!!!!!!!!!!!!!!!!!!

!!!!!!!!!!!!!!!!!!!!!!!!!!!!!!!!
!!!! iso-Octane begin !!!!!!!!!!
!!!!!!!!!!!!!!!!!!!!!!!!!!!!!!!!

I-C8H18

! R                 
AXC8H17           BXC8H17           CXC8H17           DXC8H17 

! Alkene
IXC8H16     JXC8H16 

! Alkenyl radical
IXC8H15 

! RO2
AXC8H17O2         BXC8H17O2         CXC8H17O2         DXC8H17O2         

! RO      
AXC8H17O          DXC8H17O          CXC8H17O          BXC8H17O          

!QOOH
CC8H16OOHXD       CC8H16OOHXB       BC8H16OOHXA       BC8H16OOHXD       
DC8H16OOHXD       AC8H16OOHXA       AC8H16OOHXB       DC8H16OOHXB       
CC8H16OOHXA       AC8H16OOHXD       DC8H16OOHXA       BC8H16OOHXC       
DC8H16OOHXC       AC8H16OOHXC       

! ROOH
CXC8H17O2H        AXC8H17O2H        BXC8H17O2H        DXC8H17O2H        

! Cyclic ether        
IC8ETERBC         IC8ETERCD         IC8ETERAA         IC8ETERAB         
IC8ETERBD         IC8ETERDD         IC8ETERAC         IC8ETERAD         

! O2QOOH
BC8H16OOHXDO2     AC8H16OOHXAO2     AC8H16OOHXDO2     CC8H16OOHXAO2     
DC8H16OOHXAO2     DC8H16OOHXDO2     BC8H16OOHXAO2     DC8H16OOHXBO2     
AC8H16OOHXBO2     AC8H16OOHXCO2     

! KET
IC8KETAB          TXC3H6CHO         IC8KETDB          IC8KETBA          IC8KETBD
TC4H9COC2H4S      IC8KETAA          IC8KETDD          IC8KETAC          

! POOH
AC8H15GOOHGAB     AC8H15GOOHGAC     DC8H15GOOHGBD     AC8H15GOOHGBD     
AC8H15GOOHGAD     BC8H15GOOHGAA     BC8H15GOOHGAD     BC8H15GOOHGDD     
BC8H15GOOHGAC     

! Cyclic ether from POOH
CGOOHGETRAA       AGOOHGETRAD       DGOOHGETRAA       DGOOHGETRBD       
BGOOHGETRAD       DGOOHGETRAB       BGOOHGETRDD       BGOOHGETRAA       
AGOOHGETRAB       DC8H15GOOHGAB     AGOOHGETRBD       DC8H15GOOHGAD     
DGOOHGETRAD       AGOOHGETRAC       AGOOHGETRBC  

! products from POOH+HO2
XC8OOHA           
     
!KET products
IC3H7COC3H6XT     DC6H12CHOXD       HXC6H12CHO        TXC4H8CHO         

! Cyclic ether products
I-C3H5CHO         I-C3H7CO          TXC4H9CO          PC7H13XO          
IXC3H6CHO         IXC3H6CO          YC7H13XY2   

! Intermediates
PXC7H15           YXC7H15           OXC7H14           YXC7H14           XXC7H14
PXC7H14           NEOXC5H11         IXC4H9            TXC4H9            IXC4H8    
IXC4H6OH          IXC4H7OH          I-C3H7CHO         TXC4H9CHO         I-C3H7O
IC4H7XI1          C4H8OHX1O2        IXC4H7            IXC4H7O           CC6H11XB 
TC4H8O2HXI        NEOXC6H11         IXC4H7OOH         IC4H8O2HXT        
NEOXC5H10OOH      I-C3H7O2          C3H6OOH2X1        C3H6OOH2X1O2      IXC4H10           
IXC4H9O2          IC4H8O2HXI        IXC4H8O           IC4H8OOHXIO2      IC4KETII
IXC4H9O           CH3CO2            TXC4H9O           IXC4H9O2H         TXC4H9O2
TXC4H9O2H         O2C4H8CHO         O2HC4H8CO         I-C3H5CO          
YC7H13OXY2        PC7H13OXO         CC6H11OXB         IXC4H7XI1OO       
IXC4H7OX1         SC4H7OHXI         SC4H7OHXIP        SC4H7OXI          
SC4H7OOHXI        IXC4H8OHXIT       IXC4H8OHXTI       OVCC(VC)COJ       
OVCC(VC)COOH      IC4YAA            IC4YAA-R          IC3H4CHO-A        
IC4H6OOHXI        IXC4H6Q2XII       IC4QA-AOJ         IXC4H7O2
CVCYCCOC      
!!!!!!!!!!!!!!!!!!!!!!!!!!!!!!!!
!!!! iso-Octane end   !!!!!!!!!!
!!!!!!!!!!!!!!!!!!!!!!!!!!!!!!!!


! Small aromatics  
C5H4CH2           A1-               A1CHCH            A1C2H3            A1C2H   
A1C2H3-           A2-A              A2                A2-B              C5H6    
C5H5              TXC5H5O           C5H4O             !! SXC5H5O        
C9H8    
C9H7              A1CH2             C9H6O             O-C6H4            A1CH3             
A1OH              HOA1CH3           OA1CH3            A1CH2O            A1CH2OH 
A1CHO             A1O               A1CH3-            A1CH2CH2          A1C2H5  
C8H9O2            C8H8OOH           OC8H7OOH          A1CH3CH3          A1CH3CH2
A1CH3CHO          A2CH3             A1CHOCH2          A1CHOCHO          A2OH    
A2CH2             A2CH2O            A2CHO             A2O               OC6H4O  
A1CO              A1CHCH3           A1CCH2
C5H5OOH           CTCCCVCCVC    


C9H7OH
C9H7OH-2
C9H6OH
TXC9H7O !! INDND2-4R in LLNL

! NOx
!! NOx commented out by rlanger
!! N                 NO                N2O               NO2               NH   
!! HNO               NH2               NNH               CN                NCO  
!! HCN               HOCN              HNCO              H2CN              HCNN              
!! HCNO              NH3               


C4H6-2            C4H612            C4H6-1            C4H5-1            C4H5-3
C4H5-4            C4H5-2            PC2H4OH           AC4H7OOH          NC4H5O2
CH2CHCHCHO        SC3H5CHO          SC3H5CO           CYCCCOO-3J        
CYCOOC-CH2        C4H512-OO4        C4H513-OO2        CH2CYCOO-CH2    
C2H3COOCH2        C3H3CH2OOH        C3H3CH2O          C3H3CHO           O2CH2CHO
HO2CH2CO          CVCCJCVC


!!!!!!!!!!!!!!!!!!!!!!!!!!!!!!!!
!!!! Cyclopentadiene begin !!!!!
!!!!!!!!!!!!!!!!!!!!!!!!!!!!!!!!

HOCVCCVO          HOCVCCJVO         C#CCVCCJ          CVCCJCVCOH         
CVCCVCCOH         C5H6-L            C5H3O             CJVCCVCCVO
CVCCVCCJVO        CVCC(OJ)CVC       CVCC(OO)CVC       CJVCCVO      
CVCCVCCOJ         CVCCVCCOO         CVCCVCCVO         CYC5H8            C5H5OH  
C5H4OH            C5H7              C5H7-2            C5H5CH3           C5H5CH2
C5H4CH3
!! from LLNL
CPND2-5R          C5H5OH-1          C5H5OH-2
C5H5CH3-2         C5H5CH3-1         C5H5CH2-2         C5H5CH2-1         C6H7-3
!!!!!!!!!!!!!!!!!!!!!!!!!!!!!!!!
!!!! Cyclopentadiene end !!!!!!!
!!!!!!!!!!!!!!!!!!!!!!!!!!!!!!!!

!!!!!!!!!!!!!!!!!!!!!!!!!!!!!!!!!!!!!!!!!!!!!!!!!!!!!!!!!!!
!!!! Toluene, xylene, styrene oxidation begin !!!!!!!!!!!!!
!!!!!!!!!!!!!!!!!!!!!!!!!!!!!!!!!!!!!!!!!!!!!!!!!!!!!!!!!!!
C7H6              C7H5              A1CH2OO           BZCOOH            
O-O2A1CH3         OC6H4CH2          A1CHOH            A1C2H5-           OA1C2H5
A1C2H5CH3
!!!!!!!!!!!!!!!!!!!!!!!!!!!!!!!!!!!!!!!!!!!!!!!!!!!!!!!!!!!
!!!! Toluene, xylene, styrene oxidation end !!!!!!!!!!!!!!!
!!!!!!!!!!!!!!!!!!!!!!!!!!!!!!!!!!!!!!!!!!!!!!!!!!!!!!!!!!!

!!!!!!!!!!!!!!!!!!!!!!!!!!!!!!!!!!!!!!!!!!!!!!!!!!!!!!!!!!!
!!!! Naphthalene, methylnaphthalene oxidation begin !!!!!!!
!!!!!!!!!!!!!!!!!!!!!!!!!!!!!!!!!!!!!!!!!!!!!!!!!!!!!!!!!!!
C6H3A1CH3         C11H9O-LIN        C6H4A1CH3         A2OCH3            A2OHCH3
O-O2C6H4A1CH3     M-O2C6H4A1CH3     OC6H4A1CH2        CHOCCH3ACO1-5     HOA2CH3
HOA2CH2           HOA2CH2OOH        HOA2CH2OO         HOA2CHO           HOA2CH2O
HOA2CO            O2A2CH3           OA2CH3    
!!!!!!!!!!!!!!!!!!!!!!!!!!!!!!!!!!!!!!!!!!!!!!!!!!!!!!!!!!!
!!!! Naphthalene, methylnaphthalene oxidation end !!!!!!!!!
!!!!!!!!!!!!!!!!!!!!!!!!!!!!!!!!!!!!!!!!!!!!!!!!!!!!!!!!!!!

A1C2H-            A2C2H2A           A2C2H2B           A2C2HA            A2C2HB  
A2C2HA-           A2C2HB-           A2R5              A2R5X             A2R5C2H2
A2R5C2H           A2R5C2H-          P2XC12H10         P2XXC12H9 
ME-C12H9          ME-C12H8          
A3XXC14H9         A3XC14H10         A3YXC14H9         A3R5X             A3R5    
A4XC16H10         A4XXC16H9         A4R5              FLTN              A2OHCH2
A2OHCH2OO         A2OHCH2OOH        A2OHCHO           A2OHCH2O          A2OHCO 
ANTR5

CHCCH2CH2CHCH2    CH2CCHCH2CHCH2    C4H5-2C2H         CH2CHCHCHCCH
BENZOFULVENYL     A1C2HX2           C10H6-12          C10H6-23
C6H4(C2H)(C2H3)   NAPHTHYL-H2       BENZOFULVENE      !! BICYCLO    
FULVALENE         C10H10            VINYLCPDYL        C-C7H7            A1CCVCVC          
A1C4H5            A1CVCCTC          A1CCCTC           A1CTCCVC          !C9H7CH2          
A2CTCCVC A2CVCCTC A2CTCCVC-2 A2CVCCTC-2
ME-A2CYC5 ME-RA2CYC5 
ME-FLUORENE MEFLUORENE-J
CH2FLUROENE C13H8CH3
DIME-NAPH RDIME-NAPH

!!! CHU SPECIES
C-C4H5

!!!!!!!!!!!!!!!!!!!!!!!!!!!!!!!!!!!!!!!!!!!!!!!!!!!!!!!!!!!!!!!!!!!!!!!!!!!!!!!!
!!!!!!!!!!!!!!!!!!!!!!!!!!!!    C10    !!!!!!!!!!!!!!!!!!!!!!!!!!!!!!!!!!!!!!!!!
!!!!!!!!!!!!!!!!!!!!!!!!!!!!!!!!!!!!!!!!!!!!!!!!!!!!!!!!!!!!!!!!!!!!!!!!!!!!!!!!

!!!!!!!!!!!!!
!!! C10H6 !!!
!!!!!!!!!!!!!
    C10H6-5             ! C10H6-5
    C10H6-4             ! C10H6-4

!!!!!!!!!!!!!
!!! C10H7 !!!
!!!!!!!!!!!!!
    C10H7-1             ! C10H7-1   !! C2H and CHCH* substitute, no oxidation 
                                    !! because we don't have oxidation of 
                                    !! C5H4CH2 radicals either
                                    !! produced in the second C2H2 addition of 
                                    !! the orig. Frenklach path (HACA)
    C10H7-5             ! C10H7-5   !! radical side on six membered ring, no 
                                    !! oxidation because we don't have oxidation
                                    !! of C5H4CH2 radicals either 
    C10H7-7             ! C10H7-7   !! radical side on five membered ring, no 
                                    !! oxidation because we don't have oxidation
                                    !! of C5H4CH2 radicals either 

!!!!!!!!!!!!!!!!!!!!!!!!!!!!!!!!!!!!!!!!!!!!!!!!!!!!!!!!!!!!!!!!!!!!!!!!!!!!!!!!
!!!!!!!!!!!!!!!!!!!!!!!!!!!!    C12    !!!!!!!!!!!!!!!!!!!!!!!!!!!!!!!!!!!!!!!!!
!!!!!!!!!!!!!!!!!!!!!!!!!!!!!!!!!!!!!!!!!!!!!!!!!!!!!!!!!!!!!!!!!!!!!!!!!!!!!!!!

!!!!!!!!!!!!!
!!! C12H10 !!
!!!!!!!!!!!!!
    A2C2H3A               ! VNP-1
    A2C2H3B               ! VNP-2

!!!!!!!!!!!!!
!!! C12H9 !!!
!!!!!!!!!!!!!
    N6-1                ! N6-1      !! C12H9, has a C4 ring, oxidation in analogy to A2C2H2B (quite crude because this is somewhat similar to A2R5) 
    N6-2                ! N6-2      !! C12H9, has a C4 ring, oxidation in analogy to A2C2H2B (quite crude because this is somewhat similar to A2R5) 
    N7-1                ! N7-1      !! C12H9 oxidation in analogy to A2C2H2B 
    N7-2                ! N7-2      !! C12H9, has a C4 ring, oxidation in analogy to A2C2H2B
    N8-1                ! N8-1      !! C12H9, like A2R5X with double bond in R5, oxidation in analogy to A2C2H2B
    N8-2                ! N8-2      !! C12H9 oxidation in analogy to A2C2H2A 
    N11-1               ! N11-1     !! C12H9 oxidation in analogy to A2C2H2B 
    N11-2               ! N11-2     !! C12H9 oxidation in analogy to A2C2H2B 
    N14-1               ! N14-1     !! C12H9 oxidation in analogy to A2C2H2B 
    N14-2               ! N14-2     !! C12H9, CHCH radical substitue, oxidation in analogy to A2C2H2B 
    N16-2               ! N16-2     !! C12H9, has a C4 ring with radical side, oxidation in analogy to A2C2H2B 
    N17-2               ! N17-2     !! C12H9, has a C4 ring with radical side oxidation in analogy to A2C2H2B 
    N-SHARED            ! N-SHARED  !! C12H9 oxidation in analogy to A2C2H2B 
    AN1                 ! AN1       !! C12H9, like A2R5 without double bond, oxidation in analogy to A2C2H2B
    AN2                 ! AN2       !! C12H9, like A2R5 without double bond, oxidation in analogy to A2C2H2B

!!!!!!!!!!!!!
!!! C12H8 !!!
!!!!!!!!!!!!!
    CBAN                ! CBAN      !!  C12H8, oxidation in analogy to A2R5
    CBBN                ! CBBN      !!  C12H8, oxidation in analogy to A2R5

!!!!!!!!!!!!!
!!! C12H7 !!!
!!!!!!!!!!!!!
    N1-CS9              ! N1-CS9   
    N1-CS10             ! N1-CS10  
    N1-CS11             ! N1-CS11  
    N1-CS12             ! N1-CS12  
    N1-CS8              ! N1-CS8   
    N1-CS7              ! N1-CS7   
    N2-CS6              ! N2-CS6   
    N2-CS5              ! N2-CS5   
    N2-CS7              ! N2-CS7   
    N2-CS8              ! N2-CS8   
    N2-CS9              ! N2-CS9   
    N2-CS4              ! N2-CS4   
    A2R5-2              ! N1-CS39  
    A2R5-1              ! N1-CS40  
    N1-CS41             ! N1-CS41  

!!!!!!!!!!!!!!!!!!!!!!!!!!!!!!!!!!!!!!!!!!!!!!!!!!!!!!!!!!!!!!!!!!!!!!!!!!!!!!!!
!!!!!!!!!!!!!!!!!!!!!!!!!!!!    C14    !!!!!!!!!!!!!!!!!!!!!!!!!!!!!!!!!!!!!!!!!
!!!!!!!!!!!!!!!!!!!!!!!!!!!!!!!!!!!!!!!!!!!!!!!!!!!!!!!!!!!!!!!!!!!!!!!!!!!!!!!!

!!!!!!!!!!!!!
!!! C14H11 !!
!!!!!!!!!!!!!
    N4-1                ! N4-1      !!  C14H11
    N3-1                ! N3-1      !!  C14H11
    N5-1                ! N5-1      !!  C14H11
    N4-2                ! N4-2      !!  C14H11
    N3-2                ! N3-2      !!  C14H11
    N5-2                ! N5-2      !!  C14H11
    N10-1               ! N10-1     !!  C14H11
    N9-1                ! N9-1      !!  C14H11
    N10-2               ! N10-2     !!  C14H11
    N9-2                ! N9-2      !!  C14H11
    N15-2               ! N15-2     !!  C14H11
    N18-2               ! N18-2     !!  C14H11
    N19-2               ! N19-2     !!  C14H11
    N13-1               ! N13-1     !!  C14H11
    N12-1               ! N12-1     !!  C14H11
    N13-2               ! N13-2     !!  C14H11
    N12-2               ! N12-2     !!  C14H11

!!!!!!!!!!!!!
!!! C14H10 !!
!!!!!!!!!!!!!
    CHN                 ! CHN       !!  C14H10 oxidation in analogy to A3XC14H10
    ANT                 ! ANT       !!  C14H10 oxidation in analogy to A3XC14H10
    E8VN1               ! E8VN1     !!  C14H10 oxidation in analogy to A3XC14H10
    E2VN1               ! E2VN1     !!  C14H10 oxidation in analogy to A3XC14H10
    E1VN2               ! E1VN2     !!  C14H10 oxidation in analogy to A3XC14H10
    E3VN2               ! E3VN2     !!  C14H10 oxidation in analogy to A3XC14H10
    ACNV2               ! ACNV2     !!  C14H10 oxidation in analogy to A3XC14H10

!!!!!!!!!!!!!
!!! C14H9 !!!
!!!!!!!!!!!!!
    N1-CS13             ! N1-CS13   !!   C14H9, like A2R5X with a C2H substitute and a double bond removed, oxidation in analogy to A3XXC14H9
    N1-CS29             ! N1-CS29   !!   C14H9, like A2R5X with a C2H substitute and a double bond removed, oxidation in analogy to A3XXC14H9 
    N1-CS28             ! N1-CS28   !!   C14H9, A2, with a C2H and CHCH substitute, oxidation in analogy to A3XXC14H9
    N2-CS31             ! N2-CS31   !!   C14H9, A2, with a C2H and CHCH substitute, oxidation in analogy to A3XXC14H9
    N2-CS32             ! N2-CS32   !!   C14H9, like A2R5X with a C2H substitute and a double bond removed, oxidation in analogy to A3XXC14H9
    N2-CS29             ! N2-CS29   !!   C14H9, like A2R5X with a C2H substitute and a double bond removed, oxidation in analogy to A3XXC14H9
    N2-CS28             ! N2-CS28   !!   C14H9, A2, with a C2H and CHCH substitute, oxidation in analogy to A3XXC14H9
    N2-CS34             ! N2-CS34   !!   C14H9, like A2R5X with a C2H substitute and a double bond removed, oxidation in analogy to A3XXC14H9
    N2-CS33             ! N2-CS33   !!   C14H9, A2, with a C2H and CHCH substitute, oxidation in analogy to A3XXC14H9
    N2-CS36             ! N2-CS36   !!   C14H9, A2, with a C2H and CHCH substitute, oxidation in analogy to A3XXC14H9
    N2-CS43             ! N2-CS43   !!   C14H9, A2, with a C2H and CHCH substitute, oxidation in analogy to A3XXC14H9
    N2-CS26             ! N2-CS26   !!   C14H9, anthracyl
    N2-CS25             ! N2-CS25   !!   C14H9, A2, with a C2H and CHCH substitute, oxidation in analogy to A3XXC14H9
    N1-CS17             ! N1-CS17   !!   C14H9, A2, with a C2H and CHCH substitute, oxidation in analogy to A3XXC14H9
    N1-CS18             ! N1-CS18   !!   C14H9, A2, with a C2H and CHCH substitute, oxidation in analogy to A3XXC14H9
    N1-CS19             ! N1-CS19   !!   C14H9, A2, with a C2H and CHCH substitute, oxidation in analogy to A3XXC14H9
    N1-CS14             ! N1-CS14   !!   C14H9, A2, with a C2H and CHCH substitute, oxidation in analogy to A3XXC14H9
    N2-CS14             ! N2-CS14   !!   C14H9, A2, with a C2H and CHCH substitute, oxidation in analogy to A3XXC14H9
    N2-CS15             ! N2-CS15   !!   C14H9, A2, with a C2H and CHCH substitute, oxidation in analogy to A3XXC14H9
    N1-CS48             ! N1-CS48   !!   C14H9, four rings
    N1-CS42             ! N1-CS42   !!   C14H9, A2R5CHCH
    N1-CS49             ! N1-CS49   !!   C14H9, A2R5C2H3*
    N1-CS50             ! N1-CS50   !!   C14H9, four rings
    N1-CS31             ! N1-CS31   !!   C14H9, 
    N1-CS44             ! N1-CS44   !!   C14H9, A2R5CHCH (CHCH position deviates from  N1-CS42)
    N1-CS45             ! N1-CS45   !!   C14H9, A2R5CHCH (CHCH at the R5 part)
    N1-CS32             ! N1-CS32   !!   C14H9, like A2R5X with a C2H substitute and a double bond removed, oxidation in analogy to A3XXC14H9

!!!!!!!!!!!!!
!!! C14H8 !!!
!!!!!!!!!!!!!
    N2-CS18             ! N2-CS18   !!   C14H8, A2, with two C2H substitutes, oxidation in analogy to A2R5C2H
    N2-CS20             ! N2-CS20   !!   C14H8, A2, with two C2H substitutes, oxidation in analogy to A2R5C2H
    N1-CS23             ! N1-CS23   !!   C14H8, A2, with two C2H substitutes, oxidation in analogy to A2R5C2H
    N2-CS23             ! N2-CS23   !!   C14H8, A2, with two C2H substitutes, oxidation in analogy to A2R5C2H
    N1-CS26             ! N1-CS26   !!   C14H8, A2, with two C2H substitutes, oxidation in analogy to A2R5C2H          
    N2-CS19             ! N2-CS19   !!   C14H8, A2, with two C2H substitutes, oxidation in analogy to A2R5C2H   
    N2-CS24             ! N2-CS24   !!   C14H8, A2, with two C2H substitutes, oxidation in analogy to A2R5C2H
    N2-CS21             ! N2-CS21   !!   C14H8, A2, with two C2H substitutes, oxidation in analogy to A2R5C2H 
    N1-CS22             ! N1-CS22   !!   C14H8, A2, with two C2H substitutes, oxidation in analogy to A2R5C2H 
    N2-CS22             ! N2-CS22   !!   C14H8, A2, with two C2H substitutes, oxidation in analogy to A2R5C2H 
    A2R5-2C2H           ! N2-CS30   !!   C14H8, A2R5C2H but C2H at different position than A2R5C2H
    A2R5-1C2H           ! N1-CS46   !!   C14H8, A2R5C2H but C2H at different position than A2R5C2H
    N1-CS47             ! N1-CS47   !!   C14H8, A2R5C2H but C2H at different position than A2R5C2H
    A2DIR5              ! N1-CS51   !!   C14H8, four rings


!!!!!!!!!!!!!!!!!!!!!!!!!!!!!!!!!!!!!!!!!!!!!!!!!!!!!!!!!!!!!!!!!!!!!!!!!!!!!!!!
!!!!!!!!!!!!!!!!!!!!!!!!!!!!    C20    !!!!!!!!!!!!!!!!!!!!!!!!!!!!!!!!!!!!!!!!!
!!!!!!!!!!!!!!!!!!!!!!!!!!!!!!!!!!!!!!!!!!!!!!!!!!!!!!!!!!!!!!!!!!!!!!!!!!!!!!!!

!!!!!!!!!!!!!
!!! C20H14 !!
!!!!!!!!!!!!!
    C20H14-1            ! C20H14-1  !!
    C20H14-2            ! C20H14-2  !!
    C20H14-3            ! C20H14-3  !!

A1CHCCH2 A1CCCH2 A1CH2CCH A1CHCCH
A1CHCCH3 A1CCCH3 A1C3H5-1 A1C3H5-2
PBZJA PBZJB PBZJC
COA1C3H4-1 AOA1C3H4-2
A1C3H4  C14H12  C14H11-AR

C6H5-C5H4 C6H5-C5H5
ISOC9H9 IC12H12-A IC12H12-P
A1CH2CCH2

METHYLINDENYL-1 METHYLINDENYL-2 
CH2-1-INDAN-2-YL CH2-1-INDAN-3-YL 
  
METHYLINDENE-1 METHYLINDENE-2 METHYLINDENE-3 

!____________________________________________________________________________________________________________
!       Combustion & Flame 2017
!       Pressure dependent kinetic analysis of pathways to naphthalene from cyclopentadienyl recombination
!
!       Alan E. Long, Shamel S. Merchant, Aaeron G. Vandeputte, William H. Green [MIT]
!       Hans-Heinrich Carstensen, Alexander J. Vervust, Guy B. Marin, Kevin M. Van Geem [Ghent]
!       
!       CHEMKIN SubMechanism (Last Modified: 09/05/2017)
!       RMG/Cantherm version SHA: c312f3068c8e13491C5066c0b22bd64F4Db9e101
!____________________________________________________________________________________________________________

C5H5C5H5-1A        !  T1A 
C5H5C5H5-1B        !  T1B 
C5H5C5H5-1C        !  T1C 
C5H5C5H5-1D        !  T1D 
C5H5C5H5-1E        !  T1e 
C5H5C5H5-1F        !  T1f 
C5H5-C5H5          !  T2  
C5H5CHCHCHCHCH2    !  T3  
CC7CC5-4A          !  T4a 
CC7CC5-4B          !  T4B 
CC7CC5-4C          !  T4C 
CC7CC5-4D          !  T4D 
CC7CC5-4E          !  T4e 
CC7CC5-4F          !  T4F 
CC7CC5-4G          !  T4g 
CC7CC5-4H          !  T4h 
C5H5C5H4-1A        !  N1A 
C5H5C5H4-1B        !  N1B 
C5H5C5H4-1C        !  N1C 
C5H5-C5H4-1        !  N_2 
C5H5-C5H4-2        !  N3  
C5H5-C5H4-3        !  N4  
C10H9              !  N5  
A1CHCHCHCH         !  N6  
CC7XCC5-7A         !  N7a 
CC7XCC5-7B         !  N7b 
CC7XCC5-7C         !  N7c 
AZULENE            !  Azln

!! CH3INDC2HA-R
C2HA-INDJ         
!! CH3-INDC2HA       
IND-C2HA          

NAPHC3H4               
NAPHCHCCH3-1           
NAPHC3H4-V             
NAPHCCCH3-1            
NAPHCCCH3-V            
NAPHCHCCH3-V           
NAPHCHCCH2-V           
NAPHCH2CCH-V           
A2CYC5-L               
A2CYC5R-L              
NAPHCH2CCH2-V                      
CH3C9H6                
CH3C9H7                
A2R5-ME                
A2R5-MER               
A2R5CHCCH3-1                   
A2CYC5-C2H             
A2CYC5R                
A2CYC5                 
A2C2HR-CH2J            
A2C2HL-CH2J            
ME-A2C2HL              
ME-A2C2HR              
NAPHCH2CCH-1           
NAPHCHCCH2-1           
MEA2CYC5               
RMEA2CYC5              
C2HA2CYC5R             

N1-CS9-CH2CCH
N1-CS9-CHCCH2
!! N1-CS9-CHCCH
N1-CS9-CCCH2

!!A2R5-2-CH2CCH
!!A2R5-2-CHCCH2
!!A2R5-2-CHCCH 
!!A2R5-2-CCCH2 

A2CYC5-2ME             
A2CYC5-2MER            
ALLYLNAPH-1            
ALLYLNAPH-2            
A2R5CCCH3-1            
A2R5CHCCH2-1           
CYC5A2R5            
A2R5IC3H4-1R        
A2R5CH2CCH2-1       
A2R5CH2CCH-1        
A2R5C3H4-1          
A2R5CHCCH3-3        
A2R5CHCCH2-3        
A2R5CCCH3-3         
A2R5IC3H4-3R        
A2R5CH2CCH2-3       
A2R5CH2CCH-3        
A2R5C3H4-3          
A2R5CHCCH3-2        
A2R5CCCH3-2         
A2R5CHCCH2-2        
A2R5IC3H4-2R        
A2R5CH2CCH2-2       
A2R5CH2CCH-2        
A2R5C3H4-2          
RCYC5A2R5           
MECYC5A2R5            
CYC5A2R5-2ME          
RMECYC5A2R5           
CYC5A2R5-2MER         
MEA2R5           
RMEA2R5          
FLUORENE             
C2HIC9H8             
C2HC6H4C3H4          
C2HC6H4CHCCH3        
C2HC6H4CCCH3         
C2HC6H4CHCCH2        
C2HC6H4CH2CCH2       
!! A1C2H-CHCCH
A1C2H-CCCH2
C2HC6H4CH2CCH        
CH3C6H4CH2CCH        
CH3C6H4CHCCH2        
CH2C6H4C2H           
CH2C6H4C2H3          
MEFLUORENE           
RFLUORENE            
ISOC13H11             
ISOC13H11-V           
NAPHCH2CCH2-1         
CH3C6H4C2H3       
C6H5CH2C6H5
C6H5CHC6H5
P2C2H-2
A1CCA1
CH3C6H4C2H

A2C5CH2
PC13H9R1
A2C6