ELEMENTS
N  AR C  O  H  HE 
END
SPECIES
N2                O2                OH                H2                H2O               CO                CO2               C                 
C2H2              CH4               
END
REACTIONS
END
