THERMO ALL
   300.000  1000.000  5000.000
N2                000000N   2               G    300.00   5000.00 1000.00      1
 2.92664000E+00 1.48797680E-03-5.68476000E-07 1.00970380E-10-6.75335100E-15    2
-9.22797700E+02 5.98052800E+00 3.29867700E+00 1.40824040E-03-3.96322200E-06    3
 5.64151500E-09-2.44485400E-12-1.02089990E+03 3.95037200E+00                   4
AR                000000AR  1               G    300.00   5000.00 1000.00      1
 2.50000000E+00 0.00000000E+00 0.00000000E+00 0.00000000E+00 0.00000000E+00    2
-7.45375000E+02 4.36600000E+00 2.50000000E+00 0.00000000E+00 0.00000000E+00    3
 0.00000000E+00 0.00000000E+00-7.45375000E+02 4.36600000E+00                   4
H                 000000H   1               G    100.00   5000.00 3459.60      1
 2.49999999E+00 9.20455546E-12-3.58608293E-15 6.15198922E-19-3.92041801E-23    2
 2.54742178E+04-4.44972842E-01 2.50000000E+00 9.24384602E-15-1.36779837E-17    3
 6.66184769E-21-1.00106912E-24 2.54742178E+04-4.44972896E-01                   4
O2                000000O   2               G    300.00   5000.00 1000.00      1
 3.28253784E+00 1.48308754E-03-7.57966669E-07 2.09470555E-10-2.16717794E-14    2
-1.08845772E+03 5.45323129E+00 3.78245636E+00-2.99673416E-03 9.84730201E-06    3
-9.68129509E-09 3.24372837E-12-1.06394356E+03 3.65767573E+00                   4
O                 000000O   1               G    300.00   5000.00 1000.00      1
 2.56942078E+00-8.59741137E-05 4.19484589E-08-1.00177799E-11 1.22833691E-15    2
 2.92175791E+04 4.78433864E+00 3.16826710E+00-3.27931884E-03 6.64306396E-06    3
-6.12806624E-09 2.11265971E-12 2.91222592E+04 2.05193346E+00                   4
OH                000000O   1H   1          G    300.00   5000.00 1000.00      1
 2.86472886E+00 1.05650448E-03-2.59082758E-07 3.05218674E-11-1.33195876E-15    2
 3.71885774E+03 5.70164073E+00 4.12530561E+00-3.22544939E-03 6.52764691E-06    3
-5.79853643E-09 2.06237379E-12 3.38153812E+03-6.90432960E-01                   4
H2                000000H   2               G    100.00   5000.00 1522.54      1
 3.18685793E+00 1.91831968E-04 2.13778007E-07-6.16100081E-11 4.90274624E-15    2
-8.68610051E+02-2.39505918E+00 3.48836221E+00 9.89580039E-05-3.83604271E-07    3
 5.01598766E-10-1.37104049E-13-1.04146650E+03-4.24254296E+00                   4
H2O               000000O   1H   2          G    300.00   5000.00 1000.00      1
 3.03399249E+00 2.17691804E-03-1.64072518E-07-9.70419870E-11 1.68200992E-14    2
-3.00042971E+04 4.96677010E+00 4.19864056E+00-2.03643410E-03 6.52040211E-06    3
-5.48797062E-09 1.77197817E-12-3.02937267E+04-8.49032208E-01                   4
HE                000000HE  1               G    300.00   5000.00 1000.00      1
 2.50000000E+00 0.00000000E+00 0.00000000E+00 0.00000000E+00 0.00000000E+00    2
-7.45375000E+02 9.15348900E-01 2.50000000E+00 0.00000000E+00 0.00000000E+00    3
 0.00000000E+00 0.00000000E+00-7.45375000E+02 9.15348800E-01                   4
HO2               000000O   2H   1          G    300.00   5000.00 1000.00      1
 4.17228741E+00 1.88117627E-03-3.46277286E-07 1.94657549E-11 1.76256905E-16    2
 3.10206839E+01 2.95767672E+00 4.30179807E+00-4.74912097E-03 2.11582905E-05    3
-2.42763914E-08 9.29225225E-12 2.64018485E+02 3.71666220E+00                   4
H2O2              000000O   2H   2          G    300.00   5000.00 1000.00      1
 4.16500285E+00 4.90831694E-03-1.90139225E-06 3.71185986E-10-2.87908305E-14    2
-1.78617877E+04 2.91615662E+00 4.27611269E+00-5.42822417E-04 1.67335701E-05    3
-2.15770813E-08 8.62454363E-12-1.77025821E+04 3.43505074E+00                   4
CO                000000O   1C   1          G    300.00   5000.00 1000.00      1
 2.71518561E+00 2.06252743E-03-9.98825771E-07 2.30053008E-10-2.03647716E-14    2
-1.41518724E+04 7.81868772E+00 3.57953347E+00-6.10353680E-04 1.01681433E-06    3
 9.07005884E-10-9.04424499E-13-1.43440860E+04 3.50840928E+00                   4
CO2               000000O   2C   1          G    300.00   5000.00 1000.00      1
 3.85746029E+00 4.41437026E-03-2.21481404E-06 5.23490188E-10-4.72084164E-14    2
-4.87591660E+04 2.27163806E+00 2.35677352E+00 8.98459677E-03-7.12356269E-06    3
 2.45919022E-09-1.43699548E-13-4.83719697E+04 9.90105222E+00                   4
HCO               000000O   1H   1C   1     G    300.00   5000.00 1000.00      1
 2.77217438E+00 4.95695526E-03-2.48445613E-06 5.89161778E-10-5.33508711E-14    2
 4.01191815E+03 9.79834492E+00 4.22118584E+00-3.24392532E-03 1.37799446E-05    3
-1.33144093E-08 4.33768865E-12 3.83956496E+03 3.39437243E+00                   4
C                 000000C   1               G    300.00   5000.00 1000.00      1
 2.49266888E+00 4.79889284E-05-7.24335020E-08 3.74291029E-11-4.87277893E-15    2
 8.54512953E+04 4.80150373E+00 2.55423955E+00-3.21537724E-04 7.33792245E-07    3
-7.32234889E-10 2.66521446E-13 8.54438832E+04 4.53130848E+00                   4
CH                000000H   1C   1          G    300.00   5000.00 1000.00      1
 2.87846473E+00 9.70913681E-04 1.44445655E-07-1.30687849E-10 1.76079383E-14    2
 7.10124364E+04 5.48497999E+00 3.48981665E+00 3.23835541E-04-1.68899065E-06    3
 3.16217327E-09-1.40609067E-12 7.07972934E+04 2.08401108E+00                   4
TXCH2             000000H   2C   1          G    300.00   5000.00 1000.00      1
 2.87410113E+00 3.65639292E-03-1.40894597E-06 2.60179549E-10-1.87727567E-14    2
 4.62636040E+04 6.17119324E+00 3.76267867E+00 9.68872143E-04 2.79489841E-06    3
-3.85091153E-09 1.68741719E-12 4.60040401E+04 1.56253185E+00                   4
CH3               000000H   3C   1          G    300.00   5000.00 1000.00      1
 2.97812060E+00 5.79785200E-03-1.97558000E-06 3.07297900E-10-1.79174160E-14    2
 1.65095130E+04 4.72247990E+00 3.65717970E+00 2.12659790E-03 5.45838830E-06    3
-6.61810030E-09 2.46570740E-12 1.64227160E+04 1.67353540E+00                   4
CH2O              000000O   1H   2C   1     G    300.00   5000.00 1000.00      1
 1.76069008E+00 9.20000082E-03-4.42258813E-06 1.00641212E-09-8.83855640E-14    2
-1.39958323E+04 1.36563230E+01 4.79372315E+00-9.90833369E-03 3.73220008E-05    3
-3.79285261E-08 1.31772652E-11-1.43089567E+04 6.02812900E-01                   4
HCCO              000000O   1H   1C   2     G    300.00   5000.00 1000.00      1
 5.62820580E+00 4.08534010E-03-1.59345470E-06 2.86260520E-10-1.94078320E-14    2
 1.93272150E+04-3.93025950E+00 2.25172140E+00 1.76550210E-02-2.37291010E-05    3
 1.72757590E-08-5.06648110E-12 2.00594490E+04 1.24904170E+01                   4
C2H               000000H   1C   2          G    100.00   5000.00  816.49      1
 3.82807163E+00 3.61965742E-03-1.29285471E-06 2.05742718E-10-1.23512537E-14    2
 6.70814268E+04 2.94450182E+00 3.11938953E+00 1.18597671E-02-2.51910027E-05    3
 2.68712464E-08-1.03670814E-11 6.70382145E+04 5.24649778E+00                   4
CH2CO             000000O   1H   2C   2     G    300.00   5000.00 1000.00      1
 4.51129732E+00 9.00359745E-03-4.16939635E-06 9.23345882E-10-7.94838201E-14    2
-7.55105311E+03 6.32247205E-01 2.13583630E+00 1.81188721E-02-1.73947474E-05    3
 9.34397568E-09-2.01457615E-12-7.04291804E+03 1.22156480E+01                   4
C2H2              000000H   2C   2          G    100.00   5000.00  962.80      1
 5.02077795E+00 4.22470269E-03-1.42000136E-06 2.56105133E-10-1.84544863E-14    2
 2.55666188E+04-6.22588857E+00 3.11331938E+00 6.02058533E-03 5.33031324E-06    3
-1.10293378E-08 4.62859887E-12 2.62179845E+04 4.37938268E+00                   4
SXCH2             000000H   2C   1          G    300.00   5000.00 1000.00      1
 2.29203842E+00 4.65588637E-03-2.01191947E-06 4.17906000E-10-3.39716365E-14    2
 5.09259997E+04 8.62650169E+00 4.19860411E+00-2.36661419E-03 8.23296220E-06    3
-6.68815981E-09 1.94314737E-12 5.04968163E+04-7.69118967E-01                   4
CH3OH             000000O   1H   4C   1     G    300.00   5000.00 1000.00      1
 1.78970791E+00 1.40938292E-02-6.36500835E-06 1.38171085E-09-1.17060220E-13    2
-2.53748747E+04 1.45023623E+01 5.71539582E+00-1.52309129E-02 6.52441155E-05    3
-7.10806889E-08 2.61352698E-11-2.56427656E+04-1.50409823E+00                   4
CH2OH             000000O   1H   3C   1     G    300.00   5000.00 1000.00      1
 3.69266569E+00 8.64576797E-03-3.75101120E-06 7.87234636E-10-6.48554201E-14    2
-3.24250627E+03 5.81043215E+00 3.86388918E+00 5.59672304E-03 5.93271791E-06    3
-1.04532012E-08 4.36967278E-12-3.19391367E+03 5.47302243E+00                   4
CH3O              000000O   1H   3C   1     G    300.00   5000.00 1000.00      1
 3.77079900E+00 7.87149700E-03-2.65638400E-06 3.94443100E-10-2.11261600E-14    2
 1.27832520E+02 2.92957500E+00 2.10620400E+00 7.21659500E-03 5.33847200E-06    3
-7.37763600E-09 2.07561000E-12 9.78601100E+02 1.31521770E+01                   4
CH4               000000H   4C   1          G    300.00   5000.00 1000.00      1
 1.65326226E+00 1.00263099E-02-3.31661238E-06 5.36483138E-10-3.14696758E-14    2
-1.00095936E+04 9.90506283E+00 5.14911468E+00-1.36622009E-02 4.91453921E-05    3
-4.84246767E-08 1.66603441E-11-1.02465983E+04-4.63848842E+00                   4
CH3O2             000000O   2H   3C   1     G    300.00   5000.00 1000.00      1
 5.92505819E+00 9.00194542E-03-3.24254309E-06 5.24362718E-10-3.14263003E-14    2
-1.53258958E+03-4.93669747E+00 4.76597792E+00-3.51077148E-03 4.54394152E-05    3
-5.66763729E-08 2.21591482E-11-4.82401289E+02 4.76095141E+00                   4
C2H3              000000H   3C   2          G    100.00   5000.00  956.69      1
 4.81087656E+00 6.59337838E-03-2.20129495E-06 4.04587872E-10-2.98091068E-14    2
 3.37427523E+04-1.85774644E+00 3.83146115E+00-7.47448486E-04 2.72388708E-05    3
-3.26055590E-08 1.18614714E-11 3.44534845E+04 5.55913311E+00                   4
C2H4              000000H   4C   2          G    100.00   5000.00  979.36      1
 3.55660610E+00 1.10627464E-02-4.17019079E-06 7.85586770E-10-5.70060829E-14    2
 4.32046489E+03 2.17719479E+00 3.97471606E+00-4.75844285E-03 4.16783770E-05    3
-4.51392516E-08 1.54224761E-11 4.91540746E+03 3.62430844E+00                   4
C2H5              000000H   5C   2          G    300.00   5000.00 1000.00      1
 1.95465642E+00 1.73972722E-02-7.98206668E-06 1.75217689E-09-1.49641576E-13    2
 1.28575200E+04 1.34624343E+01 4.30646568E+00-4.18658892E-03 4.97142807E-05    3
-5.99126606E-08 2.30509004E-11 1.28416265E+04 4.70720924E+00                   4
HCCOH             000000O   1H   2C   2     G    300.00   5000.00 1000.00      1
 5.92382910E+00 6.79236000E-03-2.56585640E-06 4.49878410E-10-2.99401010E-14    2
 7.26462600E+03-7.60177420E+00 1.24237330E+00 3.10722010E-02-5.08668640E-05    3
 4.31371310E-08-1.40145940E-11 8.03161430E+03 1.38743190E+01                   4
CH2CHO            000000O   1H   3C   2     G    298.00   3000.00 1000.00      1
 3.63026330E+00 1.41239404E-02-7.16478146E-06 1.76263004E-09-1.70391996E-13    2
 4.29875072E+02 6.20577997E+00 9.86311004E-01 2.24920216E-02-1.64812936E-05    3
 5.86617239E-09-6.81551147E-13 1.07163704E+03 1.95196726E+01                   4
CH3CHO            000000O   1H   4C   2     G    300.00   5000.00 1000.00      1
 2.68543112E+00 1.76802373E-02-8.65402739E-06 2.03680589E-09-1.87630935E-13    2
-2.21653701E+04 1.11635653E+01 1.40653856E+00 2.16984438E-02-1.47573265E-05    3
 7.30435478E-09-2.09119467E-12-2.17973223E+04 1.77513265E+01                   4
H2C2              000000H   2C   2          G    300.00   5000.00 1000.00      1
 4.27803400E+00 4.75628040E-03-1.63010090E-06 2.54628060E-10-1.48863790E-14    2
 4.83166880E+04 6.40237010E-01 3.28154830E+00 6.97647910E-03-2.38552440E-06    3
-1.21044320E-09 9.81895450E-13 4.86217940E+04 5.92039100E+00                   4
C2H5O             000000O   1H   5C   2     G    300.00   5000.00 1000.00      1
 2.46262349E+00 2.09503959E-02-9.39291750E-06 1.56440627E-09 0.00000000E+00    2
-3.83932658E+03 1.28738847E+01 4.94420708E-01 2.71774434E-02-1.65909010E-05    3
 5.15204200E-09-6.48496915E-13-3.35252925E+03 2.28079378E+01                   4
NXC3H7            000000H   7C   3          G    300.00   5000.00 1000.00      1
 7.70404050E+00 1.60415400E-02-5.28159670E-06 7.62544030E-10-3.93534620E-14    2
 8.29795310E+03-1.54875140E+01 1.04754730E+00 2.60077940E-02 2.35622520E-06    3
-1.95923170E-08 9.36801160E-12 1.06326370E+04 2.11418760E+01                   4
C2H6              000000H   6C   2          G    300.00   5000.00 1000.00      1
 1.07188150E+00 2.16852677E-02-1.00256067E-05 2.21412001E-09-1.90002890E-13    2
-1.14263932E+04 1.51156107E+01 4.29142492E+00-5.50154270E-03 5.99438288E-05    3
-7.08466285E-08 2.68685771E-11-1.15222055E+04 2.66682316E+00                   4
C3H8              000000H   8C   3          G    300.00   5000.00 1000.00      1
 7.53413680E+00 1.88722390E-02-6.27184910E-06 9.14756490E-10-4.78380690E-14    2
-1.64675160E+04-1.78923490E+01 9.33553810E-01 2.64245790E-02 6.10597270E-06    3
-2.19774990E-08 9.51492530E-12-1.39585200E+04 1.92016910E+01                   4
C3H6              000000H   6C   3          G    200.00   6000.00 1000.00      1
 6.03870234E+00 1.62963931E-02-5.82130800E-06 9.35936829E-10-5.58603143E-14    2
-7.41715057E+02-8.43825992E+00 3.83464468E+00 3.29078952E-03 5.05228001E-05    3
-6.66251176E-08 2.63707473E-11 7.88717123E+02 7.53408013E+00                   4
C3H3              000000H   3C   3          G    200.00   6000.00 1000.00      1
 7.14221719E+00 7.61902211E-03-2.67460030E-06 4.24914904E-10-2.51475443E-14    2
 3.95710114E+04-1.25848129E+01 1.34577946E+00 3.27862233E-02-4.75146967E-05    3
 3.77892551E-08-1.19201548E-11 4.07684638E+04 1.52273792E+01                   4
PXC3H4            000000H   4C   3          G    300.00   5000.00 1000.00      1
 2.81460543E+00 1.85524496E-02-9.55026768E-06 2.39951370E-09-2.37485257E-13    2
 2.07010771E+04 8.60604972E+00 1.46175323E+00 2.46026602E-02-1.90219395E-05    3
 8.60363422E-09-1.66729240E-12 2.09209793E+04 1.49262585E+01                   4
AXC3H4            000000H   4C   3          G    300.00   5000.00 1000.00      1
 2.56128757E+00 1.95080128E-02-1.04061366E-05 2.70165173E-09-2.75074329E-13    2
 2.13894289E+04 9.20550397E+00 3.68928265E-01 2.89351397E-02-2.44386408E-05    3
 1.12547166E-08-2.03040262E-12 2.17585256E+04 1.95267211E+01                   4
SXC3H5            000000H   5C   3          G    298.00   3000.00 1000.00      1
 2.88965689E+00 2.06484496E-02-1.02005529E-05 2.45220758E-09-2.32477736E-13    2
 3.04802242E+04 1.02662579E+01 1.56451650E+00 2.36197016E-02-1.07382165E-05    3
-8.68979222E-11 1.19817981E-12 3.08476047E+04 1.72062874E+01                   4
NXC4H3            000000H   3C   4          G    100.00   5000.00  950.06      1
 8.93984381E+00 7.98651619E-03-2.52107333E-06 4.30931720E-10-3.01738281E-14    2
 6.20804004E+04-2.03631319E+01 2.75146864E+00 2.28455962E-02-8.30522735E-06    3
-7.91370093E-09 5.42948667E-12 6.37615326E+04 1.18342953E+01                   4
C2H3CHO           000000O   1H   4C   3     G    298.00   3000.00 1000.00      1
 4.27745325E+00 2.08995067E-02-1.10621906E-05 2.80392911E-09-2.76871274E-13    2
-1.01465486E+04 2.26814496E+00 1.30858881E+00 2.90665687E-02-1.85267312E-05    3
 5.10575873E-09-3.12357850E-13-9.34139504E+03 1.75831373E+01                   4
AXC3H5            000000H   5C   3          G    200.00   3000.00 1000.00      1
 4.22973890E+00 1.88238808E-02-8.86343156E-06 2.03225185E-09-1.84214522E-13    2
 1.78789497E+04 9.28205318E-01 1.47214563E+00 1.77370863E-02 1.80437301E-05    3
-3.95394054E-08 1.83246688E-11 1.89020240E+04 1.68401967E+01                   4
C2O               000000O   1C   2          G    200.00   3000.00 1000.00      1
 4.34400693E+00 4.37478707E-03-2.56000095E-06 6.99892708E-10-7.32213869E-14    2
 4.43197166E+04 2.09419414E+00 3.03149846E+00 1.10743614E-02-1.64643075E-05    3
 1.40152768E-08-4.87136483E-12 4.45479894E+04 8.17433479E+00                   4
C4H4              000000H   4C   4          G    100.00   5000.00  955.25      1
 8.52652790E+00 1.08961504E-02-3.56564474E-06 6.31243407E-10-4.51890878E-14    2
 3.11962382E+04-1.96435183E+01 2.87083262E+00 1.82042500E-02 1.06710562E-05    3
-2.72491598E-08 1.19477652E-11 3.30238451E+04 1.12934384E+01                   4
C3H2              000000H   2C   3          G    300.00   5000.00 1000.00      1
 7.67920588E+00 3.85560826E-03-8.23429967E-07-6.18108592E-11 2.93114202E-14    2
 6.29136323E+04-1.42211873E+01 4.52861333E+00 1.77565501E-02-2.54882946E-05    3
 2.01674629E-08-6.28544707E-12 6.35410087E+04 8.09423748E-01                   4
C4H2              000000H   2C   4          G    100.00   5000.00 1061.12      1
 8.53383593E+00 6.48510854E-03-2.11585438E-06 3.35827397E-10-2.11540291E-14    2
 5.22064556E+04-2.14748326E+01 2.01411625E+00 3.10619660E-02-3.68578732E-05    3
 2.21631889E-08-5.16370619E-12 5.35900904E+04 1.03657992E+01                   4
IXC4H3            000000H   3C   4          G    100.00   5000.00  841.11      1
 6.74047851E+00 1.26892250E-02-5.43045266E-06 9.96208069E-10-6.78094556E-14    2
 5.71523082E+04-6.79882861E+00 2.59158130E+00 3.24210917E-02-4.06217212E-05    3
 2.88907437E-08-8.35933805E-12 5.78501985E+04 1.24990362E+01                   4
TXC3H5            000000H   5C   3          G    298.00   3000.00 1000.00      1
 2.36288328E+00 2.15547888E-02-1.07842989E-05 2.61984410E-09-2.50507107E-13    2
 2.88377470E+04 1.33587759E+01 2.47223165E+00 1.75096865E-02 1.54166152E-06    3
-1.03357169E-08 4.31484742E-12 2.89681156E+04 1.36627279E+01                   4
C3H5O             000000O   1H   5C   3     G    300.00   5000.00 1000.00      1
 3.39074577E+00 2.41301620E-02-1.13650894E-05 1.97900938E-09 0.00000000E+00    2
 9.00757452E+03 1.03459501E+01 1.19822582E+00 3.05579837E-02-1.80630276E-05    3
 4.86150033E-09-4.19854562E-13 9.58217784E+03 2.15566221E+01                   4
C4H               000000H   1C   4          G    200.00   3000.00 1000.00      1
 6.03820048E+00 8.62128091E-03-4.45674803E-06 1.11996309E-09-1.10566198E-13    2
 9.44729635E+04-5.29594880E+00 2.19529214E+00 3.12944772E-02-5.28920922E-05    3
 4.61037012E-08-1.54892481E-11 9.49541903E+04 1.16444885E+01                   4
C8H2              000000H   2C   8          G    300.00   5000.00 1000.00      1
 1.63586996E+01 1.08592595E-02-3.91654796E-06 6.34107033E-10-3.80413156E-14    2
 1.02366984E+05-5.56746562E+01-3.26701608E-01 9.43328676E-02-1.72876384E-04    3
 1.56816538E-07-5.40488426E-11 1.05392079E+05 2.20322120E+01                   4
C6H2              000000H   2C   6          G    300.00   3000.00 1000.00      1
 1.32262810E+01 7.39043020E-03-2.27153810E-06 2.58752170E-10-5.53567410E-15    2
 8.05652580E+04-4.12011760E+01-1.59326240E+00 8.05301450E-02-1.48006490E-04    3
 1.33000310E-07-4.53323130E-11 8.32732270E+04 2.79808730E+01                   4
C4H6              000000H   6C   4          G    298.15   2000.00 1000.00      1
 6.24959157E+00 2.20761797E-02-9.82471418E-06 1.93468553E-09-1.14632536E-13    2
 1.02076188E+04-9.44099775E+00-3.13620895E+00 5.52125538E-02-5.29190333E-05    3
 2.62574036E-08-5.09360505E-12 1.23051203E+04 3.69417713E+01                   4
NXC4H5            000000H   5C   4          G    200.00   3500.00 1070.92      1
 8.18469000E+00 1.77780000E-02-8.90671000E-06 2.21354000E-09-2.17483000E-13    2
 3.99461000E+04-1.87467000E+01 1.50021000E+00 3.05927000E-02-9.83406000E-06    3
-7.80542000E-09 4.59501000E-12 4.20747000E+04 1.72136000E+01                   4
IXC4H5            000000H   5C   4          G    100.00   5000.00  966.65      1
 8.97811105E+00 1.35586722E-02-4.70087646E-06 8.47361489E-10-6.05066790E-14    2
 3.44927225E+04-2.14573994E+01 2.67736332E+00 2.17332678E-02 1.03870982E-05    3
-2.87122466E-08 1.25380047E-11 3.65470534E+04 1.30516220E+01                   4
A1                000000H   6C   6          G    200.00   3500.00  950.77      1
 4.06749000E+00 3.53350000E-02-1.82495000E-05 4.47453000E-09-4.21489000E-13    2
 6.76912000E+03-2.06220000E+00-2.81519000E+00 4.68382000E-02-8.86217000E-06    3
-2.14154000E-08 1.14630000E-11 8.86673000E+03 3.49438000E+01                   4
C6H3              000000H   3C   6          G    100.00   5000.00 1135.59      1
 1.15774463E+01 1.38984552E-02-5.89001768E-06 1.13366924E-09-8.16766810E-14    2
 8.34334722E+04-3.13435861E+01 2.19555685E+00 4.69452955E-02-4.95416857E-05    3
 2.67601651E-08-5.72336223E-12 8.55642622E+04 1.51115103E+01                   4
LXC6H4            000000H   4C   6          G    300.00   3000.00 1000.00      1
 1.27151820E+01 1.38396620E-02-4.37654400E-06 3.15416360E-10 4.66190260E-14    2
 5.70311480E+04-3.94646000E+01 2.95902250E-01 5.80533180E-02-6.77667560E-05    3
 4.33767620E-08-1.14188640E-11 6.00013710E+04 2.23189700E+01                   4
C6H5OO            000000O   2H   5C   6     G    300.00   5000.00 1403.00      1
 1.67078262E+01 1.62326229E-02-5.47969630E-06 8.43510060E-10-4.86562431E-14    2
 8.14242915E+03-6.08346973E+01-2.99164672E+00 7.03857150E-02-6.34400574E-05    3
 2.91548920E-08-5.30706938E-12 1.41320240E+04 4.20142955E+01                   4
C4H71X3           000000H   7C   4          G    298.15   2000.00 1000.00      1
 4.47617781E+00 2.66061714E-02-1.10888375E-05 1.79886075E-09-3.16384167E-14    2
 1.31926786E+04 2.39613050E+00 6.14359756E-01 3.48974683E-02-1.27918198E-05    3
-4.22179308E-09 3.26251888E-12 1.43228410E+04 2.28161641E+01                   4
CVC(COOJ)COOH     000000O   4H   7C   4     G    300.00   5000.00 1396.00      1
 2.05693525E+01 1.61361787E-02-5.41230237E-06 8.30438953E-10-4.78223583E-14    2
-1.06790137E+04-7.21159970E+01 3.33941884E-01 6.80588785E-02-5.67396297E-05    3
 2.39522852E-08-4.03033990E-12-4.20871930E+03 3.47589530E+01                   4
C2H5CHO           000000O   1H   6C   3     G    300.00   5000.00 1000.00      1
 3.10401322E+00 2.66733882E-02-1.20750385E-05 2.02236556E-09 0.00000000E+00    2
-2.44647131E+04 1.13387411E+01 2.16308444E+00 2.95501264E-02-1.52446252E-05    3
 3.49503947E-09-2.38896627E-13-2.42260137E+04 1.61153348E+01                   4
C2H5O2H           000000O   2H   6C   2     G    300.00   5000.00 1000.00      1
 5.70203347E+00 2.20031800E-02-9.75531641E-06 1.62734437E-09 0.00000000E+00    2
-2.25386960E+04-1.74439233E+00 1.57329011E+00 3.52379996E-02-2.53203993E-05    3
 9.56802476E-09-1.48167375E-12-2.15278368E+04 1.90472032E+01                   4
C2H5CO            000000O   1H   5C   3     G    300.00   5000.00 1000.00      1
 3.47466548E+00 2.32207586E-02-1.06500291E-05 1.80266137E-09 0.00000000E+00    2
-5.84231374E+03 1.08093318E+01 2.93313946E+00 2.47427911E-02-1.21222003E-05    3
 2.34701048E-09-5.26843338E-14-5.69663063E+03 1.35958355E+01                   4
CH3CHCO           000000O   1H   4C   3     G    300.00   5000.00 1000.00      1
 6.45951145E+00 1.56117000E-02-6.55127220E-06 1.02541702E-09 0.00000000E+00    2
-1.27042477E+04-7.71512800E+00 1.48380119E+00 3.22203013E-02-2.70250033E-05    3
 1.20499164E-08-2.18365931E-12-1.15276540E+04 1.71552068E+01                   4
CH3COCH2          000000O   1H   5C   3     G    100.00   5000.00 1005.62      1
 7.59010605E+00 1.55447166E-02-6.02335585E-06 1.12468480E-09-8.02421172E-14    2
-6.95408930E+03-1.22859915E+01 2.84405919E+00 1.89152103E-02 1.20804806E-05    3
-2.62117392E-08 1.05278958E-11-5.21542306E+03 1.45362336E+01                   4
CH2CH2CHO         000000O   1H   5C   3     G    300.00   5000.00 1000.00      1
-6.77607551E+00 4.53839720E-02-2.31798667E-05 4.07097539E-09 0.00000000E+00    2
 2.90620639E+03 6.64968049E+01 8.36272659E+00-3.90712606E-03 3.59751257E-05    3
-2.69209237E-08 5.98920261E-12-7.55243244E+02-9.53140102E+00                   4
NXC3H7O           000000O   1H   7C   3     G    300.00   5000.00 1000.00      1
 3.42509077E+00 2.93139212E-02-1.31458358E-05 2.18800366E-09 0.00000000E+00    2
-7.01563135E+03 9.63434706E+00 2.89706514E-01 3.93075560E-02-2.48069355E-05    3
 8.07083573E-09-1.07998290E-12-6.24474269E+03 2.54387810E+01                   4
CH3CO3            000000O   3H   3C   2     G    300.00   5000.00 1000.00      1
 6.99421069E+00 1.57684758E-02-7.08319519E-06 1.16988327E-09 0.00000000E+00    2
-2.42270741E+04-5.76704497E+00 3.60373432E+00 2.70080341E-02-2.08293438E-05    3
 8.50541104E-09-1.43846110E-12-2.34205171E+04 1.12014914E+01                   4
CH3CHCHO          000000O   1H   5C   3     G    300.00   5000.00 1000.00      1
 3.71333831E+00 2.33955799E-02-1.07842958E-05 1.82368810E-09 0.00000000E+00    2
-4.55057438E+03 7.42946144E+00 1.54196914E+00 3.03297391E-02-1.88922690E-05    3
 5.92263358E-09-7.53762316E-13-4.01761098E+03 1.83707011E+01                   4
IXC3H5OH          000000O   1H   6C   3     G    300.00   5000.00 1000.00      1
 3.22650689E+00 2.68543198E-02-1.24803899E-05 2.14774657E-09 0.00000000E+00    2
-2.16977830E+04 1.04184099E+01 1.58376391E+00 3.16215366E-02-1.73664942E-05    3
 4.18927663E-09-2.79899620E-13-2.12643496E+04 1.88313766E+01                   4
CH2CCH2OH         000000O   1H   5C   3     G    300.00   5000.00 1000.00      1
 3.58191118E+00 2.26426214E-02-1.04500902E-05 1.79729408E-09 0.00000000E+00    2
 1.15828067E+04 1.15174392E+01 2.88422544E+00 2.42428071E-02-1.14152268E-05    3
 1.71775334E-09 1.42177454E-13 1.17935615E+04 1.52102335E+01                   4
AXC3H5OOH         000000O   2H   6C   3     G    298.00   6000.00 1000.00      1
 1.20838649E+01 1.47946591E-02-5.13212591E-06 8.07504999E-10-4.74394983E-14    2
-1.02184463E+04-3.36434791E+01 3.18124993E+00 4.35233041E-02-5.16277353E-05    3
 4.32011427E-08-1.57714983E-11-7.63521503E+03 1.21725683E+01                   4
C3H6OH2X1         000000O   1H   7C   3     G    298.00   3000.00 1000.00      1
 6.11414519E+00 2.42123320E-02-1.12344701E-05 2.55293277E-09-2.30128197E-13    2
-1.06549215E+04-2.82887333E+00 2.73544355E+00 3.56240446E-02-2.51973981E-05    3
 9.75845743E-09-1.50573587E-12-9.87402650E+03 1.39971825E+01                   4
IXC3H7            000000H   7C   3          G    298.00   6000.00 1000.00      1
 6.70775549E+00 1.74048076E-02-6.07615926E-06 9.60084351E-10-5.65656490E-14    2
 7.55377821E+03-1.03686516E+01-8.97467137E-01 4.15744022E-02-4.94778349E-05    3
 4.56493655E-08-1.79085437E-11 9.93950407E+03 2.92641758E+01                   4
CH2O2H            000000O   2H   3C   1     G    300.00   5000.00 1410.00      1
 9.24697852E+00 4.60845541E-03-1.53501472E-06 2.34434830E-10-1.34573106E-14    2
 4.11688272E+03-2.11483916E+01 2.84073987E+00 2.12956192E-02-1.83219973E-05    3
 8.00644141E-09-1.41385097E-12 6.12878548E+03 1.25852152E+01                   4
C4H8X1            000000H   8C   4          G    300.00   5000.00 1388.00      1
 1.10189295E+01 1.82714177E-02-6.21801907E-06 9.62038611E-10-5.56791341E-14    2
-5.80998818E+03-3.47942287E+01 1.62599556E-01 4.01052746E-02-2.18038592E-05    3
 5.47070727E-09-4.54073315E-13-1.65402601E+03 2.48169258E+01                   4
CH3COCHO          000000O   2H   4C   3     G    300.00   5000.00 1381.00      1
 1.14371190E+01 1.06773624E-02-3.68967757E-06 5.77006752E-10-3.36532201E-14    2
-3.78079398E+04-3.25054087E+01 2.08731049E+00 3.09032484E-02-1.98794164E-05    3
 6.26174519E-09-7.69945504E-13-3.43989451E+04 1.82839639E+01                   4
CH3COCH2O         000000O   2H   5C   3     G    300.00   5000.00 1000.00      1
 3.50032506E+00 2.75257713E-02-1.28950710E-05 2.21063245E-09 0.00000000E+00    2
-1.91236482E+04 1.28924392E+01 3.72927689E+00 2.63943697E-02-1.09796486E-05    3
 8.58185303E-10 3.39474590E-13-1.91551565E+04 1.18505335E+01                   4
CH3COCH3          000000O   1H   6C   3     G    300.00   5000.00 1000.00      1
 1.07057510E+00 3.05641014E-02-1.43848777E-05 2.47538664E-09 0.00000000E+00    2
-2.75121809E+04 2.06647304E+01 1.30767163E+00 2.92021742E-02-1.19045617E-05    3
 6.52150087E-10 4.67751203E-13-2.75328269E+04 1.96395025E+01                   4
C3KET21           000000O   3H   6C   3     G    300.00   5000.00 1000.00      1
 5.66290215E+00 3.21780042E-02-1.53602081E-05 2.64984419E-09 0.00000000E+00    2
-3.89423019E+04 4.40481950E+00 4.55686367E+00 3.57076837E-02-1.94712054E-05    3
 4.70695431E-09-3.69753807E-13-3.86710975E+04 9.97761694E+00                   4
HCOH              000000O   1H   2C   1     G    300.00   5000.00 1398.00      1
 9.18749272E+00 1.52011152E-03-6.27603516E-07 1.09727989E-10-6.89655128E-15    2
 7.81364593E+03-2.73434214E+01-2.82157421E+00 3.57331702E-02-3.80861580E-05    3
 1.86205951E-08-3.45957838E-12 1.12956672E+04 3.48487757E+01                   4
CHCHO             000000O   1H   2C   2     G    298.15   2000.00 1000.00      1
 4.92632910E+00 9.71712147E-03-5.54855980E-06 1.53068537E-09-1.64742462E-13    2
 2.89499494E+04 5.27874677E-01 2.33256751E+00 1.62952986E-02-9.72052177E-06    3
 5.15124155E-10 1.03836514E-12 2.96585452E+04 1.39904923E+01                   4
CHOCHO            000000O   2H   2C   2     G    300.00   5000.00 1386.00      1
 9.75438561E+00 4.97645947E-03-1.74410483E-06 2.75586994E-10-1.61969892E-14    2
-2.95832896E+04-2.61878329E+01 1.88105120E+00 2.36386368E-02-1.83443295E-05    3
 6.84842963E-09-9.92733674E-13-2.69280190E+04 1.59154793E+01                   4
C2H2OH            000000O   1H   3C   2     G    300.00   5000.00 1401.00      1
 8.20268447E+00 5.92989165E-03-1.99194448E-06 3.05794341E-10-1.76114732E-14    2
 1.24881328E+04-1.89670436E+01 6.41642616E-01 2.61903633E-02-2.30385370E-05    3
 1.02804704E-08-1.81971416E-12 1.48276951E+04 2.06750999E+01                   4
HOCHO             000000O   2H   2C   1     G    200.00   6000.00 1000.00      1
 4.61383160E+00 6.44963640E-03-2.29082510E-06 3.67160470E-10-2.18736750E-14    2
-4.75148500E+04 8.47883830E-01 3.89836160E+00-3.55877950E-03 3.55205380E-05    3
-4.38499590E-08 1.71077690E-11-4.67706090E+04 7.34953970E+00                   4
C2H3OOH           000000O   2H   4C   2     G    300.00   5000.00 1397.00      1