THERMO ALL
   300.000  1000.000  5000.000
!!
!! InChI's and SMILES formulas are provided for every species in the model.
!! If a species name represents a lumped set of species, only one 
!! representative identifier has been added. Species have not been lumped in 
!! the current work. The current kinetic model is based on that of Cai et 
!! al. [1], who integrated their work into the published chemical kinetic model of 
!! Narayanaswamy et al. [3]. Narayanaswamy et al. [3] and Blanquart et al. [2]
!! introduced the lumped species.
!!
!! [1] L. Cai, A. Ramalingam, H. Minwegen, K. Alexander Heufer, H. Pitsch, 
!!     Impact of exhaust gas recirculation on ignition delay times of gasoline 
!!     fuel: An experimental and modeling study, Proceedings of the Combustion 
!!     Institute 37 (1) (2019) 639-647.
!! [2] G. Blanquart, P. Pepiot-Desjardins, and H. Pitsch. Chemical mechanism 
!!     for high temperature combustion of engine relevant fuels with emphasis 
!!     on soot precursors. Combustion and Flame, 156(3):588-607, 2009.
!! [3] K. Narayanaswamy, G. Blanquart, and H. Pitsch. A consistent chemical 
!!     mechanism for oxidation of substituted aromatic species. Combustion and 
!!     Flame, 157(10):1879-1898, 2010.
!!
!!    N#N
!!    InChI=1S/N2/c1-2
N2                000000N   2               G    300.00   5000.00 1000.00      1
 2.92664000E+00 1.48797680E-03-5.68476000E-07 1.00970380E-10-6.75335100E-15    2
-9.22797700E+02 5.98052800E+00 3.29867700E+00 1.40824040E-03-3.96322200E-06    3
 5.64151500E-09-2.44485400E-12-1.02089990E+03 3.95037200E+00                   4
!!    [Ar]
!!    InChI=1S/Ar
AR                000000AR  1               G    300.00   5000.00 1000.00      1
 2.50000000E+00 0.00000000E+00 0.00000000E+00 0.00000000E+00 0.00000000E+00    2
-7.45375000E+02 4.36600000E+00 2.50000000E+00 0.00000000E+00 0.00000000E+00    3
 0.00000000E+00 0.00000000E+00-7.45375000E+02 4.36600000E+00                   4
!!    O=O
!!    InChI=1S/O2/c1-2
O2                000000O   2               G    300.00   5000.00 1000.00      1
 3.28253784E+00 1.48308754E-03-7.57966669E-07 2.09470555E-10-2.16717794E-14    2
-1.08845772E+03 5.45323129E+00 3.78245636E+00-2.99673416E-03 9.84730201E-06    3
-9.68129509E-09 3.24372837E-12-1.06394356E+03 3.65767573E+00                   4
!!    [O]
!!    InChI=1S/O
O                 000000O   1               G    300.00   5000.00 1000.00      1
 2.56942078E+00-8.59741137E-05 4.19484589E-08-1.00177799E-11 1.22833691E-15    2
 2.92175791E+04 4.78433864E+00 3.16826710E+00-3.27931884E-03 6.64306396E-06    3
-6.12806624E-09 2.11265971E-12 2.91222592E+04 2.05193346E+00                   4
!!    [OH]
!!    InChI=1S/HO/h1H
OH                000000O   1H   1          G    300.00   5000.00 1000.00      1
 2.86472886E+00 1.05650448E-03-2.59082758E-07 3.05218674E-11-1.33195876E-15    2
 3.71885774E+03 5.70164073E+00 4.12530561E+00-3.22544939E-03 6.52764691E-06    3
-5.79853643E-09 2.06237379E-12 3.38153812E+03-6.90432960E-01                   4
!!    O
!!    InChI=1S/H2O/h1H2
H2O               000000O   1H   2          G    300.00   5000.00 1000.00      1
 3.03399249E+00 2.17691804E-03-1.64072518E-07-9.70419870E-11 1.68200992E-14    2
-3.00042971E+04 4.96677010E+00 4.19864056E+00-2.03643410E-03 6.52040211E-06    3
-5.48797062E-09 1.77197817E-12-3.02937267E+04-8.49032208E-01                   4
!!    [He]
!!    InChI=1S/He
HE                000000HE  1               G    300.00   5000.00 1000.00      1
 2.50000000E+00 0.00000000E+00 0.00000000E+00 0.00000000E+00 0.00000000E+00    2
-7.45375000E+02 9.15348900E-01 2.50000000E+00 0.00000000E+00 0.00000000E+00    3
 0.00000000E+00 0.00000000E+00-7.45375000E+02 9.15348800E-01                   4

!!    [O]O
!!    InChI=1S/HO2/c1-2/h1H
HO2               000000O   2H   1          G    300.00   5000.00 1000.00      1
 4.17228741E+00 1.88117627E-03-3.46277286E-07 1.94657549E-11 1.76256905E-16    2
 3.10206839E+01 2.95767672E+00 4.30179807E+00-4.74912097E-03 2.11582905E-05    3
-2.42763914E-08 9.29225225E-12 2.64018485E+02 3.71666220E+00                   4

!!    OO
!!    InChI=1S/H2O2/c1-2/h1-2H
H2O2              000000O   2H   2          G    300.00   5000.00 1000.00      1
 4.16500285E+00 4.90831694E-03-1.90139225E-06 3.71185986E-10-2.87908305E-14    2
-1.78617877E+04 2.91615662E+00 4.27611269E+00-5.42822417E-04 1.67335701E-05    3
-2.15770813E-08 8.62454363E-12-1.77025821E+04 3.43505074E+00                   4

!!    [C]=O
!!    InChI=1S/CO/c1-2
CO                000000C   1O   1          G    300.00   5000.00 1000.00      1
 2.71518561E+00 2.06252743E-03-9.98825771E-07 2.30053008E-10-2.03647716E-14    2
-1.41518724E+04 7.81868772E+00 3.57953347E+00-6.10353680E-04 1.01681433E-06    3
 9.07005884E-10-9.04424499E-13-1.43440860E+04 3.50840928E+00                   4

!!    O=C=O
!!    InChI=1S/CO2/c2-1-3
CO2               000000C   1O   2          G    300.00   5000.00 1000.00      1
 3.85746029E+00 4.41437026E-03-2.21481404E-06 5.23490188E-10-4.72084164E-14    2
-4.87591660E+04 2.27163806E+00 2.35677352E+00 8.98459677E-03-7.12356269E-06    3
 2.45919022E-09-1.43699548E-13-4.83719697E+04 9.90105222E+00                   4

!!    [CH]=O
!!    InChI=1S/CHO/c1-2/h1H
HCO               000000C   1O   1H   1     G    300.00   5000.00 1000.00      1
 2.77217438E+00 4.95695526E-03-2.48445613E-06 5.89161778E-10-5.33508711E-14    2
 4.01191815E+03 9.79834492E+00 4.22118584E+00-3.24392532E-03 1.37799446E-05    3
-1.33144093E-08 4.33768865E-12 3.83956496E+03 3.39437243E+00                   4
!!    [C] 
!!    InChI=1S/C
C                 000000C   1               G    300.00   5000.00 1000.00      1
 2.49266888E+00 4.79889284E-05-7.24335020E-08 3.74291029E-11-4.87277893E-15    2
 8.54512953E+04 4.80150373E+00 2.55423955E+00-3.21537724E-04 7.33792245E-07    3
-7.32234889E-10 2.66521446E-13 8.54438832E+04 4.53130848E+00                   4
!!    [CH]
!!    InChI=1S/CH/h1H
CH                000000C   1H   1          G    300.00   5000.00 1000.00      1
 2.87846473E+00 9.70913681E-04 1.44445655E-07-1.30687849E-10 1.76079383E-14    2
 7.10124364E+04 5.48497999E+00 3.48981665E+00 3.23835541E-04-1.68899065E-06    3
 3.16217327E-09-1.40609067E-12 7.07972934E+04 2.08401108E+00                   4
!!    [CH2]  !! triplet[CH2]
!!    InChI=1S/CH2/h1H2
T-CH2             000000C   1H   2          G    300.00   5000.00 1000.00      1
 2.87410113E+00 3.65639292E-03-1.40894597E-06 2.60179549E-10-1.87727567E-14    2
 4.62636040E+04 6.17119324E+00 3.76267867E+00 9.68872143E-04 2.79489841E-06    3
-3.85091153E-09 1.68741719E-12 4.60040401E+04 1.56253185E+00                   4
!!    [CH3]
!!    InChI=1S/CH3/h1H3
CH3               000000C   1H   3          G    300.00   5000.00 1000.00      1
 2.97812060E+00 5.79785200E-03-1.97558000E-06 3.07297900E-10-1.79174160E-14    2
 1.65095130E+04 4.72247990E+00 3.65717970E+00 2.12659790E-03 5.45838830E-06    3
-6.61810030E-09 2.46570740E-12 1.64227160E+04 1.67353540E+00                   4
!!    C=O
!!    InChI=1S/CH2O/c1-2/h1H2
CH2O              000000C   1O   1H   2     G    300.00   5000.00 1000.00      1
 1.76069008E+00 9.20000082E-03-4.42258813E-06 1.00641212E-09-8.83855640E-14    2
-1.39958323E+04 1.36563230E+01 4.79372315E+00-9.90833369E-03 3.73220008E-05    3
-3.79285261E-08 1.31772652E-11-1.43089567E+04 6.02812900E-01                   4
!!    [CH]=C=O
!!    InChI=1S/C2HO/c1-2-3/h1H
HCCO              000000C   2O   1H   1     G    300.00   5000.00 1000.00      1
 5.62820580E+00 4.08534010E-03-1.59345470E-06 2.86260520E-10-1.94078320E-14    2
 1.93272150E+04-3.93025950E+00 2.25172140E+00 1.76550210E-02-2.37291010E-05    3
 1.72757590E-08-5.06648110E-12 2.00594490E+04 1.24904170E+01                   4
! Klippenstein_Glarborg2016
!!    C#[C] 
!!    InChI=1S/C2H/c1-2/h1H
C2H                     C   2H   1          G   100.000  5000.000  816.49      1
 3.82807163E+00 3.61965742E-03-1.29285471E-06 2.05742718E-10-1.23512537E-14    2
 6.70814268E+04 2.94450182E+00 3.11938953E+00 1.18597671E-02-2.51910027E-05    3
 2.68712464E-08-1.03670814E-11 6.70382145E+04 5.24649778E+00                   4
!! C2H               T 5/10C  2 H  1    0    0 G  200.0000 6000.0000 1000.00      1
!!  3.66270248E+00 3.82492252E-03-1.36632500E-06 2.13455040E-10-1.23216848E-14    2
!!  6.71640626E+04 3.91739542E+00 3.34029498E+00 9.56204541E-03-1.71385880E-05    3
!!  1.58362423E-08-5.27756137E-12 6.70226808E+04 4.40223030E+00                   4
!! C2H               000000C   2H   1          G    300.00   5000.00 1000.00      1
!!  3.16780652E+00 4.75221902E-03-1.83787077E-06 3.04190252E-10-1.77232770E-14    2
!!  6.71210650E+04 6.63589475E+00 2.88965733E+00 1.34099611E-02-2.84769501E-05    3
!!  2.94791045E-08-1.09331511E-11 6.68393932E+04 6.22296438E+00                   4
!!    C=C=O
!!    InChI=1S/C2H2O/c1-2-3/h1H2
CH2CO             000000C   2O   1H   2     G    300.00   5000.00 1000.00      1
 4.51129732E+00 9.00359745E-03-4.16939635E-06 9.23345882E-10-7.94838201E-14    2
-7.55105311E+03 6.32247205E-01 2.13583630E+00 1.81188721E-02-1.73947474E-05    3
 9.34397568E-09-2.01457615E-12-7.04291804E+03 1.22156480E+01                   4
!!    [CH2]
!!    InChI=1S/CH2/h1H2_SINGLET
S-CH2             000000C   1H   2          G    300.00   5000.00 1000.00      1
 2.29203842E+00 4.65588637E-03-2.01191947E-06 4.17906000E-10-3.39716365E-14    2
 5.09259997E+04 8.62650169E+00 4.19860411E+00-2.36661419E-03 8.23296220E-06    3
-6.68815981E-09 1.94314737E-12 5.04968163E+04-7.69118967E-01                   4
!!    CO
!!    InChI=1S/CH4O/c1-2/h2H,1H3
CH3OH             000000C   1O   1H   4     G    300.00   5000.00 1000.00      1
 1.78970791E+00 1.40938292E-02-6.36500835E-06 1.38171085E-09-1.17060220E-13    2
-2.53748747E+04 1.45023623E+01 5.71539582E+00-1.52309129E-02 6.52441155E-05    3
-7.10806889E-08 2.61352698E-11-2.56427656E+04-1.50409823E+00                   4
!!    [CH2]O
!!    InChI=1S/CH3O/c1-2/h2H,1H2
CH2OH             000000C   1O   1H   3     G    300.00   5000.00 1000.00      1
 3.69266569E+00 8.64576797E-03-3.75101120E-06 7.87234636E-10-6.48554201E-14    2
-3.24250627E+03 5.81043215E+00 3.86388918E+00 5.59672304E-03 5.93271791E-06    3
-1.04532012E-08 4.36967278E-12-3.19391367E+03 5.47302243E+00                   4
!!    C[O]
!!    InChI=1S/CH3O/c1-2/h1H3
CH3O              000000C   1O   1H   3     G    300.00   5000.00 1000.00      1
 3.77079900E+00 7.87149700E-03-2.65638400E-06 3.94443100E-10-2.11261600E-14    2
 1.27832520E+02 2.92957500E+00 2.10620400E+00 7.21659500E-03 5.33847200E-06    3
-7.37763600E-09 2.07561000E-12 9.78601100E+02 1.31521770E+01                   4
!!    C
!!    InChI=1S/CH4/h1H4
CH4               000000C   1H   4          G    300.00   5000.00 1000.00      1
 1.65326226E+00 1.00263099E-02-3.31661238E-06 5.36483138E-10-3.14696758E-14    2
-1.00095936E+04 9.90506283E+00 5.14911468E+00-1.36622009E-02 4.91453921E-05    3
-4.84246767E-08 1.66603441E-11-1.02465983E+04-4.63848842E+00                   4
!!    CO[O]
!!    InChI=1S/CH3O2/c1-3-2/h1H3
CH3O2             000000C   1O   2H   3     G    300.00   5000.00 1000.00      1
 5.92505819E+00 9.00194542E-03-3.24254309E-06 5.24362718E-10-3.14263003E-14    2
-1.53258958E+03-4.93669747E+00 4.76597792E+00-3.51077148E-03 4.54394152E-05    3
-5.66763729E-08 2.21591482E-11-4.82401289E+02 4.76095141E+00                   4
!!    [CH2]C
!!    InChI=1S/C2H5/c1-2/h1H2,2H3
C2H5              000000C   2H   5          G    300.00   5000.00 1000.00      1
 1.95465642E+00 1.73972722E-02-7.98206668E-06 1.75217689E-09-1.49641576E-13    2
 1.28575200E+04 1.34624343E+01 4.30646568E+00-4.18658892E-03 4.97142807E-05    3
-5.99126606E-08 2.30509004E-11 1.28416265E+04 4.70720924E+00                   4
!!    C#CO
!!    InChI=1S/C2H2O/c1-2-3/h1,3H
HCCOH             000000C   2O   1H   2     G    300.00   5000.00 1000.00      1
 5.92382910E+00 6.79236000E-03-2.56585640E-06 4.49878410E-10-2.99401010E-14    2
 7.26462600E+03-7.60177420E+00 1.24237330E+00 3.10722010E-02-5.08668640E-05    3
 4.31371310E-08-1.40145940E-11 8.03161430E+03 1.38743190E+01                   4
!!    [CH2]C=O
!!    InChI=1S/C2H3O/c1-2-3/h2H,1H2
!CH2CHO            000000C   2O   1H   3     G    300.00   5000.00 1000.00      1
! 2.42606357E+00 1.72400021E-02-9.77132119E-06 2.66555672E-09-2.82120078E-13    2
! 8.33106990E+02 1.26038737E+01 1.09685733E+00 2.20228796E-02-1.44583444E-05    3
! 3.00779578E-09 6.08992877E-13 1.06943322E+03 1.90094813E+01                   4
!!    [CH2]C=O
!!    InChI=1S/C2H3O/c1-2-3/h2H,1H2
CH2CHO                  C   2H   3O   1     G   298.000 3000.000 1000.000      1  !\COMMENT:  
+3.63026330E+00+1.41239404E-02-7.16478146E-06+1.76263004E-09-1.70391996E-13    2
+4.29875072E+02+6.20577997E+00+9.86311004E-01+2.24920216E-02-1.64812936E-05    3
+5.86617239E-09-6.81551147E-13+1.07163704E+03+1.95196726E+01                   4
!!    CC=O
!!    InChI=1S/C2H4O/c1-2-3/h2H,1H3
CH3CHO            000000C   2O   1H   4     G    300.00   5000.00 1000.00      1
 2.68543112E+00 1.76802373E-02-8.65402739E-06 2.03680589E-09-1.87630935E-13    2
-2.21653701E+04 1.11635653E+01 1.40653856E+00 2.16984438E-02-1.47573265E-05    3
 7.30435478E-09-2.09119467E-12-2.17973223E+04 1.77513265E+01                   4
!!    [C]=C 
!!    InChI=1S/C2H2/c1-2/h1H2
H2C2              000000C   2H   2          G    300.00   5000.00 1000.00      1
 4.27803400E+00 4.75628040E-03-1.63010090E-06 2.54628060E-10-1.48863790E-14    2
 4.83166880E+04 6.40237010E-01 3.28154830E+00 6.97647910E-03-2.38552440E-06    3
-1.21044320E-09 9.81895450E-13 4.86217940E+04 5.92039100E+00                   4
!!    CC[O]
!!    InChI=1S/C2H5O/c1-2-3/h2H2,1H3
C2H5O             000000C   2O   1H   5     G    300.00   5000.00 1000.00      1
 2.46262349E+00 2.09503959E-02-9.39291750E-06 1.56440627E-09 0.00000000E+00    2
-3.83932658E+03 1.28738847E+01 4.94420708E-01 2.71774434E-02-1.65909010E-05    3
 5.15204200E-09-6.48496915E-13-3.35252925E+03 2.28079378E+01                   4
!!    [CH2]CC
!!    InChI=1S/C3H7/c1-3-2/h1,3H2,2H3
N-C3H7            000000C   3H   7          G    300.00   5000.00 1000.00      1
 7.70404050E+00 1.60415400E-02-5.28159670E-06 7.62544030E-10-3.93534620E-14    2
 8.29795310E+03-1.54875140E+01 1.04754730E+00 2.60077940E-02 2.35622520E-06    3
-1.95923170E-08 9.36801160E-12 1.06326370E+04 2.11418760E+01                   4
!!    CC
!!    InChI=1S/C2H6/c1-2/h1-2H3
C2H6              000000C   2H   6          G    300.00   5000.00 1000.00      1
 1.07188150E+00 2.16852677E-02-1.00256067E-05 2.21412001E-09-1.90002890E-13    2
-1.14263932E+04 1.51156107E+01 4.29142492E+00-5.50154270E-03 5.99438288E-05    3
-7.08466285E-08 2.68685771E-11-1.15222055E+04 2.66682316E+00                   4
!!    CCC
!!    InChI=1S/C3H8/c1-3-2/h3H2,1-2H3
C3H8              000000C   3H   8          G    300.00   5000.00 1000.00      1
 7.53413680E+00 1.88722390E-02-6.27184910E-06 9.14756490E-10-4.78380690E-14    2
-1.64675160E+04-1.78923490E+01 9.33553810E-01 2.64245790E-02 6.10597270E-06    3
-2.19774990E-08 9.51492530E-12-1.39585200E+04 1.92016910E+01                   4
!!    CC=C 
!!    InChI=1S/C3H6/c1-3-2/h3H,1H2,2H3     !\COMMENT:  G 2/00  
C3H6                    C   3H   6          G   200.000 6000.000 1000.000      1
+6.03870234E+00+1.62963931E-02-5.82130800E-06+9.35936829E-10-5.58603143E-14    2
-7.41715057E+02-8.43825992E+00+3.83464468E+00+3.29078952E-03+5.05228001E-05    3
-6.66251176E-08+2.63707473E-11+7.88717123E+02+7.53408013E+00                   4
!! C3H6                    C   3H   6          G   100.000  5000.000 1010.28      1
!!  4.84014779E+00 1.90036608E-02-7.70907997E-06 1.44486598E-09-1.02077147E-13    2
!! -3.06752528E+02-1.87149462E+00 3.20723131E+00 1.10437419E-02 2.55267016E-05    3
!! -3.46197642E-08 1.23195917E-11 7.59353404E+02 9.66644724E+00                   4
!!    [CH2]C#C
!!    InChI=1S/C3H3/c1-3-2/h1H,2H2
C3H3                    C   3H   3              200.000 6000.000 1000.000      1  !\COMMENT:  T 7/11  (from C3 mech)
+7.14221719E+00+7.61902211E-03-2.67460030E-06+4.24914904E-10-2.51475443E-14    2
+3.95710114E+04-1.25848129E+01+1.34577946E+00+3.27862233E-02-4.75146967E-05    3
+3.77892551E-08-1.19201548E-11+4.07684638E+04+1.52273792E+01                   4
!! C3H3              000000C   3H   3          G    300.00   5000.00 1000.00      1
!!  6.14915291E+00 9.34063166E-03-3.75055354E-06 6.90156316E-10-4.60824994E-14    2
!!  3.83854848E+04-7.45345215E+00 1.40299238E+00 3.01773327E-02-3.98449373E-05    3
!!  2.93534629E-08-8.70554579E-12 3.93108220E+04 1.51527845E+01                   4
!!    CC#C
!!    InChI=1S/C3H4/c1-3-2/h1H,2H3
P-C3H4            000000C   3H   4          G    300.00   5000.00 1000.00      1
 2.81460543E+00 1.85524496E-02-9.55026768E-06 2.39951370E-09-2.37485257E-13    2
 2.07010771E+04 8.60604972E+00 1.46175323E+00 2.46026602E-02-1.90219395E-05    3
 8.60363422E-09-1.66729240E-12 2.09209793E+04 1.49262585E+01                   4
!!    C=C=C
!!    InChI=1S/C3H4/c1-3-2/h1-2H2
A-C3H4            000000C   3H   4          G    300.00   5000.00 1000.00      1
 2.56128757E+00 1.95080128E-02-1.04061366E-05 2.70165173E-09-2.75074329E-13    2
 2.13894289E+04 9.20550397E+00 3.68928265E-01 2.89351397E-02-2.44386408E-05    3
 1.12547166E-08-2.03040262E-12 2.17585256E+04 1.95267211E+01                   4
!!    CC=[CH]
!!    InChI=1S/C3H5/c1-3-2/h1,3H,2H3
!S-C3H5            000000C   3H   5          G    300.00   5000.00 1000.00      1
! 2.02509360E+00 2.35513249E-02-1.28254556E-05 3.39579222E-09-3.51794724E-13    2
! 3.11812042E+04 1.46653302E+01 3.13106581E-01 3.18769663E-02-2.53420013E-05    3
! 1.02999073E-08-1.35301854E-12 3.13767683E+04 2.23728832E+01                   4
!!    CC=[CH]
!!    InChI=1S/C3H5/c1-3-2/h1,3H,2H3
S-C3H5                  C   3H   5O   0     G   298.000 3000.000 1000.000      1  !\COMMENT:  
+2.88965689E+00+2.06484496E-02-1.02005529E-05+2.45220758E-09-2.32477736E-13    2
+3.04802242E+04+1.02662579E+01+1.56451650E+00+2.36197016E-02-1.07382165E-05    3
-8.68979222E-11+1.19817981E-12+3.08476047E+04+1.72062874E+01                   4
!!    [CH]=CC#C
!!    InChI=1S/C4H3/c1-3-4-2/h1-3H
N-C4H3      8/8/12   GMGH   3C   4          G  100.0000 5000.0000  950.06      1
 8.93984381E+00 7.98651619E-03-2.52107333E-06 4.30931720E-10-3.01738281E-14    2
 6.20804004E+04-2.03631319E+01 2.75146864E+00 2.28455962E-02-8.30522735E-06    3
-7.91370093E-09 5.42948667E-12 6.37615326E+04 1.18342953E+01                   4
!!  N-C4H3            000000C   4H   3          G    300.00   5000.00 1000.00      1
!!   7.25330164E+00 1.19580846E-02-5.26715675E-06 1.09981875E-09-8.84016751E-14    2
!!   6.28977574E+04-1.05283126E+01-3.55175031E-02 4.30508503E-02-5.75729147E-05    3
!!   4.15883142E-08-1.20750857E-11 6.43506593E+04 2.43816855E+01                   4
!!    C=CC=O   
!!    InChI=1S/C3H4O/c1-2-3-4/h2-3H,1H2
!C2H3CHO           000000C   3O   1H   4     G    300.00   5000.00 1000.00      1
! 5.56154592E+00 1.79295837E-02-8.03464758E-06 1.32295375E-09 0.00000000E+00    2
!-1.29035886E+04-3.47372739E+00 2.92355162E-01 3.54321417E-02-2.94936324E-05    3
! 1.28100124E-08-2.26144108E-12-1.16521584E+04 2.28878280E+01                   4
!!    C=CC=O   
!!    InChI=1S/C3H4O/c1-2-3-4/h2-3H,1H2
C2H3CHO                 C   3H   4O   1     G   298.000 3000.000 1000.000      1  !\COMMENT:  
+4.27745325E+00+2.08995067E-02-1.10621906E-05+2.80392911E-09-2.76871274E-13    2
-1.01465486E+04+2.26814496E+00+1.30858881E+00+2.90665687E-02-1.85267312E-05    3
+5.10575873E-09-3.12357850E-13-9.34139504E+03+1.75831373E+01                   4
!!    [CH2]C=C 
!!    InChI=1S/C3H5/c1-3-2/h3H,1-2H2
!A-C3H5            000000C   3H   5          G    300.00   5000.00 1000.00      1
! 2.28794927E+00 2.36401575E-02-1.27891450E-05 3.36838540E-09-3.47449449E-13    2
! 1.83033514E+04 1.14063418E+01-1.03516444E+00 3.75043366E-02-3.26381242E-05    3
! 1.47662613E-08-2.43741154E-12 1.88792254E+04 2.71451071E+01                   4
! Copied from SJK model
! DHf(0K) =    42.99 [kcal/mol], taken from SJK v0.9.
! Q(T) from B3LYP/6-311++G(d,p) by CFG on  06Sep2013
!!    [CH2]C=C 
!!    InChI=1S/C3H5/c1-3-2/h3H,1-2H2
A-C3H5                  H  5 C  3 O  0      G   200.0   3000.0   1000.0        1
 4.22973890E+00 1.88238808E-02-8.86343156E-06 2.03225185E-09-1.84214522E-13    2
 1.78789497E+04 9.28205318E-01 1.47214563E+00 1.77370863E-02 1.80437301E-05    3
-3.95394054E-08 1.83246688E-11 1.89020240E+04 1.68401967E+01                   4
!!  A-C3H5                  C   3H   5          G   300.000 5000.000 1373.000      1  !\COMMENT:  6/ 6/17 THERM  
!!  +8.83926244E+00+1.08489520E-02-3.76807987E-06+5.91217237E-10-3.45595703E-14    2
!!  +1.60424092E+04-2.47555313E+01+4.47889052E-01+2.79507544E-02-1.69490036E-05    3
!!  +5.54378883E-09-8.95719069E-13+1.92565554E+04+2.13053621E+01                   4
! Copied from SJK model
! DHf(0K) =    90.08 [kcal/mol], taken from SJK v0.9.
! Q(T) from B3LYP/6-311++G(d,p) by CFG on  06Sep2013
!!    [C]=C=O
!!    InChI=1S/C2O/c1-2-3
C2O                     H  0 C  2 O  1      G   200.0   3000.0   1000.0        1
 4.34400693E+00 4.37478707E-03-2.56000095E-06 6.99892708E-10-7.32213869E-14    2
 4.43197166E+04 2.09419414E+00 3.03149846E+00 1.10743614E-02-1.64643075E-05    3
 1.40152768E-08-4.87136483E-12 4.45479894E+04 8.17433479E+00                   4
! Narayanaswamy
!! C2O               000000C   2O   1          G    300.00   5000.00 1000.00      1
!!  5.42468378E+00 1.85393945E-03-5.17932956E-07 6.77646230E-11-3.53315237E-15    2
!!  3.31537194E+04-3.69608405E+00 2.86278214E+00 1.19701204E-02-1.80851222E-05    3
!!  1.52777730E-08-5.20063163E-12 3.37501779E+04 8.89759099E+00                   4
!!    [CH]=C=[CH]
!!    InChI=1S/C3H2/c1-3-2/h1-2H
C3H2              000000C   3H   2          G    300.00   5000.00 1000.00      1
 7.67920588E+00 3.85560826E-03-8.23429967E-07-6.18108592E-11 2.93114202E-14    2
 6.29136323E+04-1.42211873E+01 4.52861333E+00 1.77565501E-02-2.54882946E-05    3
 2.01674629E-08-6.28544707E-12 6.35410087E+04 8.09423748E-01                   4
!!
!!!C3H2O             000000C   3O   1H   2     G    300.00   5000.00 1000.00      1
!!! 5.51551710E+00 1.20296564E-02-6.09058988E-06 1.48866261E-09-1.42588474E-13    2
!!! 1.29567538E+04-2.05439127E+00 1.89401982E+00 2.66301486E-02-2.97185216E-05    3
!!! 1.94290386E-08-5.43402767E-12 1.37271761E+04 1.55182339E+01                   4
!!    C#CC#C   
!!    InChI=1S/C4H2/c1-3-4-2/h1-2H
C4H2        8/8/12   GMGH   2C   4          G  100.0000 5000.0000 1061.12      1
 8.53383593E+00 6.48510854E-03-2.11585438E-06 3.35827397E-10-2.11540291E-14    2
 5.22064556E+04-2.14748326E+01 2.01411625E+00 3.10619660E-02-3.68578732E-05    3
 2.21631889E-08-5.16370619E-12 5.35900904E+04 1.03657992E+01                   4
!!  C4H2              000000C   4H   2          G    300.00   5000.00 1000.00      1
!!   9.75839793E+00 3.78873223E-03 3.06142015E-07-6.33655024E-10 1.12930032E-13    2
!!   5.22698696E+04-2.79084005E+01 1.73325212E-01 4.53949030E-02-7.30123830E-05    3
!!   5.95251736E-08-1.87484716E-11 5.42239385E+04 1.80184355E+01                   4
!!    C=[C]C#C
!!    InChI=1S/C4H3/c1-3-4-2/h1H,2H2
I-C4H3      8/8/12   GMGH   3C   4          G  100.0000 5000.0000  841.11      1
 6.74047851E+00 1.26892250E-02-5.43045266E-06 9.96208069E-10-6.78094556E-14    2
 5.71523082E+04-6.79882861E+00 2.59158130E+00 3.24210917E-02-4.06217212E-05    3
 2.88907437E-08-8.35933805E-12 5.78501985E+04 1.24990362E+01                   4
!!  I-C4H3            000000C   4H   3          G    300.00   5000.00 1000.00      1
!!   7.29283596E+00 1.21664949E-02-5.50925306E-06 1.19291350E-09-1.00493092E-13    2
!!   5.71961011E+04-1.05737251E+01 3.02566263E+00 3.04693624E-02-3.68345185E-05    3
!!   2.60035352E-08-7.62154351E-12 5.80551505E+04 9.87268458E+00                   4
!!    C[C]=C   
!!    InChI=1S/C3H5/c1-3-2/h1H2,2H3
!T-C3H5            000000C   3H   5          G    300.00   5000.00 1000.00      1
! 3.15893724E+00 2.04649335E-02-1.00947812E-05 2.41157382E-09-2.26535162E-13    2
! 2.87351148E+04 8.93041515E+00 8.80980628E-01 2.96361924E-02-2.52725602E-05    3
! 1.43651816E-08-3.89566621E-12 2.92321259E+04 2.00163594E+01                   4
!!    C[C]=C   
!!    InChI=1S/C3H5/c1-3-2/h1H2,2H3
T-C3H5                  C   3H   5O   0     G   298.000 3000.000 1000.000      1  !\COMMENT:  
+2.36288328E+00+2.15547888E-02-1.07842989E-05+2.61984410E-09-2.50507107E-13    2
+2.88377470E+04+1.33587759E+01+2.47223165E+00+1.75096865E-02+1.54166152E-06    3
-1.03357169E-08+4.31484742E-12+2.89681156E+04+1.36627279E+01                   4
!!    [O]CC=C
!!    InChI=1S/C3H5O/c1-2-3-4/h2H,1,3H2
C3H5O             000000C   3O   1H   5     G    300.00   5000.00 1000.00      1
 3.39074577E+00 2.41301620E-02-1.13650894E-05 1.97900938E-09 0.00000000E+00    2
 9.00757452E+03 1.03459501E+01 1.19822582E+00 3.05579837E-02-1.80630276E-05    3
 4.86150033E-09-4.19854562E-13 9.58217784E+03 2.15566221E+01                   4
! 
! Copied from SJK model
! DHf(0K) =   190.63 [kcal/mol], taken from SJK v0.9.
! Q(T) from B3LYP/6-311++G(d,p) by CFG on  06Sep2013
!!    C#CC#[C]
!!    InChI=1S/C4H/c1-3-4-2/h1H
C4H                     H  1 C  4 O  0      G   200.0   3000.0   1000.0        1
 6.03820048E+00 8.62128091E-03-4.45674803E-06 1.11996309E-09-1.10566198E-13    2
 9.44729635E+04-5.29594880E+00 2.19529214E+00 3.12944772E-02-5.28920922E-05    3
 4.61037012E-08-1.54892481E-11 9.49541903E+04 1.16444885E+01                   4
!! ! Chernov
!! C4H                     C   4H   1          G   100.000  5000.000  828.97      1
!!  7.11456414E+00 6.22273025E-03-2.56186711E-06 4.89777830E-10-3.54288341E-14    2
!!  9.41597208E+04-1.05595423E+01 2.53511629E+00 2.83197312E-02-4.25457362E-05    3
!!  3.26451680E-08-9.73279996E-12 9.49189674E+04 1.06746835E+01                   4
!! C4H               000000C   4H   1          G    300.00   5000.00 1000.00      1
!!  7.44964925E+00 5.23173174E-03-1.96340383E-06 3.00667811E-10-1.16121546E-14    2
!!  9.30052443E+04-1.24961267E+01 3.23559253E+00 2.27091533E-02-3.18443291E-05    3
!!  2.44864804E-08-7.57986440E-12 9.39080960E+04 7.90671244E+00                   4
!!    C#CC#CC#CC#C
!!    InChI=1S/C8H2/c1-3-5-7-8-6-4-2/h1-2H
C8H2              000000C   8H   2          G    300.00   5000.00 1000.00      1
 1.63586996E+01 1.08592595E-02-3.91654796E-06 6.34107033E-10-3.80413156E-14    2
 1.02366984E+05-5.56746562E+01-3.26701608E-01 9.43328676E-02-1.72876384E-04    3
 1.56816538E-07-5.40488426E-11 1.05392079E+05 2.20322120E+01                   4
!!    
!!    c1ccccc1 
!!    InChI=1S/C6H6/c1-2-4-6-5-3-1/h1-6H
!A1                      C   6H   6          G   300.000  3000.000  894.10      1
! 3.71970092e+00 3.67098514e-02-1.95969797e-05 5.02685209e-09-5.02544326e-13    2
! 6.87201291e+03-2.85622592e-01-3.07380826e+00 4.60607126e-02 1.90700171e-08    3
!-3.59248411e-08 1.83094104e-11 8.92781957e+03 3.64318638e+01                   4
!!    
!!    
!!C2H4OH            000000C   2O   1H   5     G    300.00   5000.00 1000.00      1
!! 7.59440140E+00 9.32293390E-03-3.03038540E-06 4.32163190E-10-2.19700390E-14    2
!!-5.77278520E+03-1.39555720E+01 1.40195080E+00 2.15431750E-02-2.23265120E-06    3
!!-1.44640920E-08 8.04884200E-12-3.84645190E+03 1.91489810E+01                   4
!!    
!!    
!!HOC2H4O2          000000C   2O   3H   5     G    300.00   5000.00 1000.00      1
!! 6.42349867E+00 1.87937841E-02-7.32475800E-06 1.13482257E-09 0.00000000E+00    2
!!-2.22266087E+04 4.75153248E-01 4.44209543E+00 2.52880383E-02-1.51605275E-05    3
!! 5.24921198E-09-7.91470852E-13-2.17507126E+04 1.04122371E+01                   4
!!    COO   
!!    InChI=1S/CH4O2/c1-3-2/h2H,1H3
CH3O2H            000000C   1O   2H   4     G    300.00   5000.00 1000.00      1
 4.46640989E+00 1.51021326E-02-6.80105535E-06 1.13252538E-09 0.00000000E+00    2
-1.80236075E+04 3.04195823E+00 3.23442817E+00 1.90129767E-02-1.13386287E-05    3
 3.40306653E-09-4.11830222E-13-1.77197926E+04 9.25623949E+00                   4
! Refitting species CH2O2H:
!   max difference Cp/R = 6.8277e-08 at T =  1409.7549 K
!   max difference H/RT = 1.4652e-08 at T =  1412.1061 K
!   max difference S/R  = 9.4392e-08 at T =  3572.8364 K
!   T_match =  1410.000000 jump
!   Delta(Cp/R, H/RT, S/R) = (-5.329e-15, 0.000e+00, 0.000e+00)
!!    [CH2]OO
!!    InChI=1S/CH3O2/c1-3-2/h2H,1H2
CH2O2H     9/ 1/12      C   1H   3O   2    0G  300.0000 5000.0000 1410.00      1
 9.24697852e+00 4.60845541e-03-1.53501472e-06 2.34434830e-10-1.34573106e-14    2
 4.11688272e+03-2.11483916e+01 2.84073987e+00 2.12956192e-02-1.83219973e-05    3
 8.00644141e-09-1.41385097e-12 6.12878548e+03 1.25852152e+01                   4
!!    [O]OC=O  
!!    InChI=1S/CHO3/c2-1-4-3/h1H
O2CHO             000000C   1O   3H   1     G    300.00   5000.00 1000.00      1
 4.05631532E+00 1.02919332E-02-4.89896198E-06 8.42819470E-10 0.00000000E+00    2
-1.73830665E+04 1.12996603E+01 3.96059309E+00 1.06002279E-02-5.25713351E-06    3
 1.01716726E-09-2.87487602E-14-1.73599383E+04 1.17807483E+01                   4
!!    O=COO 
!!    InChI=1S/CH2O3/c2-1-4-3/h1,3H
HO2CHO            000000C   1O   3H   2     G    300.00   5000.00 1000.00      1
 5.19208731E+00 1.32377286E-02-6.79541016E-06 1.23480098E-09 0.00000000E+00    2
-3.61691664E+04 3.52718036E+00 2.42464726E+00 2.19706380E-02-1.68705546E-05    3
 6.25612194E-09-9.11645843E-13-3.54828006E+04 1.75027796E+01                   4
! Copied from SJK model
! DHf(0K) =   -30.96 [kcal/mol], taken from SJK v0.9.
! Q(T) from B3LYP/6-311++G(d,p) by CFG on  06Sep2013
!!    [O]C=O   
!!    InChI=1S/CHO2/c2-1-3/h1H
OCHO                    H  1 C  1 O  2      G   200.0   3000.0   1000.0        1
 4.67155853E+00 7.17074614E-03-4.10754903E-06 1.10551778E-09-1.14302683E-13    2
-1.75240704E+04 1.69001288E+00 3.11733532E+00 1.47139172E-02-1.93667065E-05    3
 1.55910348E-08-5.32961011E-12-1.72333647E+04 8.98793531E+00                   4