ELEMENTS
N  AR O  H  HE C  
END
SPECIES
N2                AR                H                 O2                O                 OH                H2                H2O               
HE                HO2               H2O2              CO                CO2               HCO               C                 CH                
TXCH2             CH3               CH2O              HCCO              C2H               CH2CO             C2H2              SXCH2             
CH3OH             CH2OH             CH3O              CH4               CH3O2             C2H3              C2H4              C2H5              
HCCOH             CH2CHO            CH3CHO            H2C2              C2H5O             NXC3H7            C2H6              C3H8              
C3H6              C3H3              PXC3H4            AXC3H4            SXC3H5            NXC4H3            C2H3CHO           AXC3H5            
C2O               C4H4              C3H2              C4H2              IXC4H3            TXC3H5            C3H5O             C4H               
C8H2              C6H2              C4H6              NXC4H5            IXC4H5            A1                C6H3              LXC6H4            
C6H5OO            C4H71X3           CVC(COOJ)COOH     C2H5CHO           C2H5O2H           C2H5CO            CH3CHCO           CH3COCH2          
CH2CH2CHO         NXC3H7O           CH3CO3            CH3CHCHO          IXC3H5OH          CH2CCH2OH         AXC3H5OOH         C3H6OH2X1         
IXC3H7            CH2O2H            C4H8X1            CH3COCHO          CH3COCH2O         CH3COCH3          C3KET21           HCOH              
CHCHO             CHOCHO            C2H2OH            HOCHO             C2H3OOH           C2H3OO            C2H3OH            HOCO              
C2H4O1            CH2COOH           C3H6O1            C3H6O1            CJCYCCO           CCYCCJO           CH3OCHCH2         SC3H5OH           
CCYCCO            CH2CHOCH2         C3H6OH1           C3H6OH1           C3H6OH1           C3H5OH            CC3H6             CC3H4             
SXC3H2            SXH2CCC           C3H2C             CH3CCO            C3H3O             C2H3CO            C3H3O2H           C2HCHO            
C3H4O1            CH2CO2            CH3COH            SC3H4OH           CH3C(OH)CH        PC3H4OH           CH2COHCO          SC2H2OH           
PC3H4OH           CH2CHCHOH         CH3CCHO           SC3H5OO           C3H5O31           C3H5O32           HOCH2CO           CH2COHCH2OOH      
CH2COHCHO         CH2(OH)OCH2       CH2COHCH2O        CH3COCH           TC3H5OO           CH2CHOCHO         CH2CCO            CH2CHOCO          
C2H5OH            CH3CHOH           CH3O2H            O2CHO             HO2CHO            OCHO              C2H3O1            CH3CO             
C2H4O2H           C2H5O2            NXC7H16           C7H15X1           C7H15X2           C7H15X3           C7H15X4           C7H14X1           
C7H14X2           C7H14X3           C7H131X3          C7H131X4          C7H131X5          C7H131X6          C7H131X7          C7H132X4          
C7H132X5          C7H132X6          C7H132X7          C7H133X1          C7H133X5          C7H133X6          C7H133X7          C7H13O1X3         
C7H13O2X4         C7H13O3X5         C7H15O2X1         C7H15O2X2         C7H15O2X3         C7H15O2X4         C7H15OX1          C7H15OX2          
C7H15OX3          C7H15OX4          C7H14OOH1X2       C7H14OOH2X3       C7H14OOH3X2       C7H14OOH3X4       C7H14OOH4X3       C7H14OOH4X1       
C7H14OOH3X1       C7H14OOH1X4       C7H14OOH3X6       C7H14OOH2X5       C7H14OOH3X5       C7H14OOH2X4       C7H14OOH1X3       C7H14OOH4X2       
C7H14OOH1X5       C7H14OOH2X6       C7H14OOH3X7       C7H15O2HX1        C7H15O2HX2        C7H15O2HX3        C7H14O1X2         C7H14O2X3         
C7H14O3X4         C7H14O1X3         C7H14O2X4         C7H14O3X5         C7H14O1X4         C7H14O2X5         C7H14O1X5         C7H14O2X6         
C7H14OOH3X1O2     C7H14OOH4X1O2     C7H14OOH1X3O2     C7H14OOH1X4O2     C7H14OOH1X5O2     C7H14OOH2X4O2     C7H14OOH2X5O2     C7H14OOH2X6O2     
C7H14OOH3X5O2     C7H14OOH3X6O2     C7H14OOH3X7O2     C7H14OOH4X2O2     NC7KET13          NC7KET14          NC7KET24          NC7KET35          
NC7KET42          NC7KET26          NC7KET37          NC7KET31          NC7KET25          NC7KET36          C7POOH15X7        C7POOH25X7        
C7POOH14X2        C7POOH14X6        C7POOH15X3        C7POOH25X3        C7POOH26X4        C7POOH25X4        C7POOH14X3        C7H131X4OOH       
C7H132X5OOH       C7H133X6OOH       C7H133X1OOH       C7O24X1OOH        C7O46X1OOH        C7O35X1OOH        C7O57X1OOH        C7O35X2OOH        
C7O57X2OOH        C7O46X2OOH        C7O46X3OOH        CH2CH2COCH3       C3H6COCH3X1       NXC4H9COCH2       C2H5COCH2         C2H5COC2H4P       
C3H6COC2H5X1      NXC3H7COCH2       C2H3COCH3         C2H5COC2H3        NXC4H9CO          NXC3H7CO          C2H5CHCO          NXC3H7CHO         
NXC4H9CHO         C6H13X1           C6H12X1           C6H111X3          C5H11X1           C5H11X2           C5H10X1           C5H10X2           
C5H91X1           C5H91X3           C5H91X4           C5H91X5           C5H92X5           C5H81X3           C5H11OX1          C5H9O1X3          
C5H11O2X1         C4H10             PXC4H9            SXC4H9            C4H8X2            C4H71X1           C4H71X2           C4H71X4           
C4H7O             PXC4H9O           PXC4H8OH          PXC4H9O2          C4H8OOH1X3        C4H8OOH1X3O2      C4H8O1X3          NC4KET13          
NXC3H7O2          C4H7CHO           C3H6OOH1X2        C3KET13           C3H6OOH1X3O2      C3H6OOH1X3        C3H6CHOX1         C3H6CHOX2         
C4H72             NXC3H7COCH3       C2H5COCH3         CH3COCH2O2        CH3COCHOH         C3H6CHOX3         C4H63D1           IXC8H18           
AXC8H17           BXC8H17           CXC8H17           DXC8H17           IXC8H16           JXC8H16           IXC8H15           AXC8H17O2         
BXC8H17O2         CXC8H17O2         DXC8H17O2         AXC8H17O          DXC8H17O          CXC8H17O          BXC8H17O          CC8H16OOHXD       
CC8H16OOHXB       BC8H16OOHXA       BC8H16OOHXD       DC8H16OOHXD       AC8H16OOHXA       AC8H16OOHXB       DC8H16OOHXB       CC8H16OOHXA       
AC8H16OOHXD       DC8H16OOHXA       BC8H16OOHXC       DC8H16OOHXC       AC8H16OOHXC       CXC8H17O2H        AXC8H17O2H        BXC8H17O2H        
DXC8H17O2H        IC8ETERBC         IC8ETERCD         IC8ETERAA         IC8ETERAB         IC8ETERBD         IC8ETERDD         IC8ETERAC         
IC8ETERAD         BC8H16OOHXDO2     AC8H16OOHXAO2     AC8H16OOHXDO2     CC8H16OOHXAO2     DC8H16OOHXAO2     DC8H16OOHXDO2     BC8H16OOHXAO2     
DC8H16OOHXBO2     AC8H16OOHXBO2     AC8H16OOHXCO2     IC8KETAB          TXC3H6CHO         IC8KETDB          IC8KETBA          IC8KETBD          
TC4H9COC2H4S      IC8KETAA          IC8KETDD          IC8KETAC          AC8H15GOOHGAB     AC8H15GOOHGAC     DC8H15GOOHGBD     AC8H15GOOHGBD     
AC8H15GOOHGAD     BC8H15GOOHGAA     BC8H15GOOHGAD     BC8H15GOOHGDD     BC8H15GOOHGAC     CGOOHGETRAA       AGOOHGETRAD       DGOOHGETRAA       
DGOOHGETRBD       BGOOHGETRAD       DGOOHGETRAB       BGOOHGETRDD       BGOOHGETRAA       AGOOHGETRAB       DC8H15GOOHGAB     AGOOHGETRBD       
DC8H15GOOHGAD     DGOOHGETRAD       AGOOHGETRAC       AGOOHGETRBC       XC8OOHA           IC3H7COC3H6XT     DC6H12CHOXD       HXC6H12CHO        
TXC4H8CHO         IXC3H5CHO         IXC3H7CO          TXC4H9CO          PC7H13XO          IXC3H6CHO         IXC3H6CO          YC7H13XY2         
PXC7H15           YXC7H15           OXC7H14           YXC7H14           XXC7H14           PXC7H14           NEOXC5H11         IXC4H9            
TXC4H9            IXC4H8            IXC4H6OH          IXC4H7OH          IXC3H7CHO         TXC4H9CHO         IXC3H7O           IC4H7XI1          
C4H8OHX1O2        IXC4H7            IXC4H7O           CC6H11XB          TC4H8O2HXI        NEOXC6H11         IXC4H7OOH         IC4H8O2HXT        
NEOXC5H10OOH      IXC3H7O2          C3H6OOH2X1        C3H6OOH2X1O2      IXC4H10           IXC4H9O2          IC4H8O2HXI        IXC4H8O           
IC4H8OOHXIO2      IC4KETII          IXC4H9O           CH3CO2            TXC4H9O           IXC4H9O2H         TXC4H9O2          TXC4H9O2H         
O2C4H8CHO         O2HC4H8CO         IXC3H5CO          YC7H13OXY2        PC7H13OXO         CC6H11OXB         IXC4H7XI1OO       IXC4H7OX1         
SC4H7OHXI         SC4H7OHXIP        SC4H7OXI          SC4H7OOHXI        IXC4H8OHXIT       IXC4H8OHXTI       OVCC(VC)COJ       OVCC(VC)COOH      
IC4YAA            IC4YAA            IC3H4CHO          IC4H6OOHXI        IXC4H6Q2XII       IC4QA             IXC4H7O2          CVCYCCOC          
C5H4CH2           A1X               A1CHCH            A1C2H3            A1C2H             A1C2H3            A2XA              A2                
A2XB              C5H6              C5H5              TXC5H5O           C5H4O             C9H8              C9H7              A1CH2             
C9H6O             OXC6H4            A1CH3             A1OH              HOA1CH3           OA1CH3            A1CH2O            A1CH2OH           
A1CHO             A1O               A1CH3             A1CH2CH2          A1C2H5            C8H9O2            C8H8OOH           OC8H7OOH          
A1CH3CH3          A1CH3CH2          A1CH3CHO          A2CH3             A1CHOCH2          A1CHOCHO          A2OH              A2CH2             
A2CH2O            A2CHO             A2O               OC6H4O            A1CO              A1CHCH3           A1CCH2            C5H5OOH           
CTCCCVCCVC        C9H7OH            C9H7OH            C9H6OH            TXC9H7O           C4H6              C4H612            C4H6              
C4H5              C4H5              C4H5              C4H5              PC2H4OH           AC4H7OOH          NC4H5O2           CH2CHCHCHO        
SC3H5CHO          SC3H5CO           CYCCCOO           CYCOOC            C4H512            C4H513            CH2CYCOO          C2H3COOCH2        
C3H3CH2OOH        C3H3CH2O          C3H3CHO           O2CH2CHO          HO2CH2CO          CVCCJCVC          HOCVCCVO          HOCVCCJVO         
C#CCVCCJ          CVCCJCVCOH        CVCCVCCOH         C5H6              C5H3O             CJVCCVCCVO        CVCCVCCJVO        CVCC(OJ)CVC       
CVCC(OO)CVC       CJVCCVO           CVCCVCCOJ         CVCCVCCOO         CVCCVCCVO         CYC5H8            C5H5OH            C5H4OH            
C5H7              C5H7              C5H5CH3           C5H5CH2           C5H4CH3           CPND2             C5H5OH            C5H5OH            
C5H5CH3           C5H5CH3           C5H5CH2           C5H5CH2           C6H7              C7H6              C7H5              A1CH2OO           
BZCOOH            OXO2A1CH3         OC6H4CH2          A1CHOH            A1C2H5            OA1C2H5           A1C2H5CH3         C6H3A1CH3         
C11H9O            C6H4A1CH3         A2OCH3            A2OHCH3           OXO2C6H4A1CH3     MXO2C6H4A1CH3     OC6H4A1CH2        CHOCCH3ACO1       
HOA2CH3           HOA2CH2           HOA2CH2OOH        HOA2CH2OO         HOA2CHO           HOA2CH2O          HOA2CO            O2A2CH3           
OA2CH3            A1C2H             A2C2H2A           A2C2H2B           A2C2HA            A2C2HB            A2C2HA            A2C2HB            
A2R5              A2R5X             A2R5C2H2          A2R5C2H           A2R5C2H           P2XC12H10         P2XXC12H9         MEXC12H9          
MEXC12H8          A3XXC14H9         A3XC14H10         A3YXC14H9         A3R5X             A3R5              A4XC16H10         A4XXC16H9         
A4R5              FLTN              A2OHCH2           A2OHCH2OO         A2OHCH2OOH        A2OHCHO           A2OHCH2O          A2OHCO            
ANTR5             CHCCH2CH2CHCH2    CH2CCHCH2CHCH2    C4H5              CH2CHCHCHCCH      BENZOFULVENYL     A1C2HX2           C10H6             
C10H6             C6H4(C2H)(C2H3)   NAPHTHYL          BENZOFULVENE      FULVALENE         C10H10            VINYLCPDYL        CXC7H7            
A1CCVCVC          A1C4H5            A1CVCCTC          A1CCCTC           A1CTCCVC          A2CTCCVC          A2CVCCTC          A2CTCCVC          
A2CVCCTC          MEXA2CYC5         MEXRA2CYC5        MEXFLUORENE       MEFLUORENE        CH2FLUROENE       C13H8CH3          DIME              
RDIME             CXC4H5            C10H6             C10H6             C10H7             C10H7             C10H7             A2C2H3A           
A2C2H3B           N6X1              N6X2              N7X1              N7X2              N8X1              N8X2              N11X1             
N11X2             N14X1             N14X2             N16X2             N17X2             NXSHARED          AN1               AN2               
CBAN              CBBN              N1XCS9            N1XCS10           N1XCS11           N1XCS12           N1XCS8            N1XCS7            
N2XCS6            N2XCS5            N2XCS7            N2XCS8            N2XCS9            N2XCS4            A2R5              A2R5              
N1XCS41           N4X1              N3X1              N5X1              N4X2              N3X2              N5X2              N10X1             
N9X1              N10X2             N9X2              N15X2             N18X2             N19X2             N13X1             N12X1             
N13X2             N12X2             CHN               ANT               E8VN1             E2VN1             E1VN2             E3VN2             
ACNV2             N1XCS13           N1XCS29           N1XCS28           N2XCS31           N2XCS32           N2XCS29           N2XCS28           
N2XCS34           N2XCS33           N2XCS36           N2XCS43           N2XCS26           N2XCS25           N1XCS17           N1XCS18           
N1XCS19           N1XCS14           N2XCS14           N2XCS15           N1XCS48           N1XCS42           N1XCS49           N1XCS50           
N1XCS31           N1XCS44           N1XCS45           N1XCS32           N2XCS18           N2XCS20           N1XCS23           N2XCS23           
N1XCS26           N2XCS19           N2XCS24           N2XCS21           N1XCS22           N2XCS22           A2R5              A2R5              
N1XCS47           A2DIR5            C20H14            C20H14            C20H14            A1CHCCH2          A1CCCH2           A1CH2CCH          
A1CHCCH           A1CHCCH3          A1CCCH3           A1C3H5            A1C3H5            PBZJA             PBZJB             PBZJC             
COA1C3H4          AOA1C3H4          A1C3H4            C14H12            C14H11            C6H5              C6H5              ISOC9H9           
IC12H12           IC12H12           A1CH2CCH2         METHYLINDENYL     METHYLINDENYL     CH2X1XINDANX2     CH2X1XINDANX3     METHYLINDENE      
METHYLINDENE      METHYLINDENE      C5H5C5H5          C5H5C5H5          C5H5C5H5          C5H5C5H5          C5H5C5H5          C5H5C5H5          
C5H5              C5H5CHCHCHCHCH2   CC7CC5            CC7CC5            CC7CC5            CC7CC5            CC7CC5            CC7CC5            
CC7CC5            CC7CC5            C5H5C5H4          C5H5C5H4          C5H5C5H4          C5H5XC5H4         C5H5XC5H4         C5H5XC5H4         
C10H9             A1CHCHCHCH        CC7XCC5           CC7XCC5           CC7XCC5           AZULENE           C2HA              INDXC2HA          
NAPHC3H4          NAPHCHCCH3        NAPHC3H4          NAPHCCCH3         NAPHCCCH3         NAPHCHCCH3        NAPHCHCCH2        NAPHCH2CCH        
A2CYC5            A2CYC5R           NAPHCH2CCH2       CH3C9H6           CH3C9H7           A2R5              A2R5              A2R5CHCCH3        
A2CYC5            A2CYC5R           A2CYC5            A2C2HR            A2C2HL            MEXA2C2HL         MEXA2C2HR         NAPHCH2CCH        
NAPHCHCCH2        MEA2CYC5          RMEA2CYC5         C2HA2CYC5R        N1XCS9            N1XCS9            N1XCS9            A2CYC5            
A2CYC5            ALLYLNAPH         ALLYLNAPH         A2R5CCCH3         A2R5CHCCH2        CYC5A2R5          A2R5IC3H4         A2R5CH2CCH2       
A2R5CH2CCH        A2R5C3H4          A2R5CHCCH3        A2R5CHCCH2        A2R5CCCH3         A2R5IC3H4         A2R5CH2CCH2       A2R5CH2CCH        
A2R5C3H4          A2R5CHCCH3        A2R5CCCH3         A2R5CHCCH2        A2R5IC3H4         A2R5CH2CCH2       A2R5CH2CCH        A2R5C3H4          
RCYC5A2R5         MECYC5A2R5        CYC5A2R5          RMECYC5A2R5       CYC5A2R5          MEA2R5            RMEA2R5           FLUORENE          
C2HIC9H8          C2HC6H4C3H4       C2HC6H4CHCCH3     C2HC6H4CCCH3      C2HC6H4CHCCH2     C2HC6H4CH2CCH2    A1C2H             C2HC6H4CH2CCH     
CH3C6H4CH2CCH     CH3C6H4CHCCH2     CH2C6H4C2H        CH2C6H4C2H3       MEFLUORENE        RFLUORENE         ISOC13H11         ISOC13H11         
NAPHCH2CCH2       CH3C6H4C2H3       C6H5CH2C6H5       C6H5CHC6H5        P2C2H             A1CCA1            CH3C6H4C2H        A2C5CH2           
PC13H9R1          A2C6              PC13H11R2         C12H8CH3R1        BUTA123TRIENE     MCP               H2C4O             YMN               
C5H4CHCHCH2       C5H5CH2CHCH2      C5H4CHCH2CH3      C4H71             C4H61OOH3         C4H61             C2H3CHOCH2        C4H61XOOH3        
C2H3COCH2Q        C4H61             C4H61XOOH34       C4H412            C3H3CHO           C4H4O             C4H71             M1X4              
M1X5              P1X6              M1X7              M1X8              M1X9              P1X11             P1X12             M2X4              
M2X5              M2X6              M2X7              M2X8              M2X9              M2X10             M2X11             P2X12             
P2X13             M2X14             P2X15             M2X16             P2X17             M2X18             P2X19             M2X20             
M2X21             P2X22             M2X23             P2X24             M2X25             P2X26             M2X27             P2X28             
M2X29             P2X30             P2X31             M2X32             M2X35             P2X36             P2X37             M3X4              
M3X5              M3X6              M3X7              M3X8              M3X9              M3X10             M3X11             P3X13             
M3X14             P3X15             M3X16             P3X17             M3X18             M3X20             P3X21             P3X22             
M3X23             P3X24             M3X25             P3X26             M3X27             M3X29             P3X30             M3X31             
M3X32             P3X34             M3X36             P3X37             M3X39             P3X41             CC4H4O            H3C4O             
HC3O              CC5H5O            C5H4OHCO          C4D13KET          OVCCVCVO          C6H4OH            OC6H4OH           C9H7C2H           
C9H6              C9H7C3H3          C9H6VCCVC         C5H3              
END
REACTIONS
H+O2<=>O+OH                              1.040e+14    0.000  15286.09
O+H2<=>H+OH                              3.818e+12    0.000   7947.90
     DUPLICATE
O+H2<=>H+OH                              8.792e+14    0.000  19169.93
     DUPLICATE
H2+OH<=>H2O+H                            2.160e+08    1.510   3429.97
2OH<=>O+H2O                              3.340e+04    2.420  -1929.97
H2+M<=>2H+M                              4.577e+19   -1.400 104380.02
AR/0.00/ H2/2.50/ H2O/12.00/ HE/0.00/ CO/1.90/ CO2/3.80/ 
H2+AR<=>2H+AR                            5.840e+18   -1.100 104380.02
H2+HE<=>2H+HE                            5.840e+18   -1.100 104380.02
2O+M<=>O2+M                              6.165e+15   -0.500      0.00
AR/0.00/ H2/2.50/ H2O/12.00/ HE/0.00/ CO/1.90/ CO2/3.80/ 
2O+AR<=>O2+AR                            1.886e+13    0.000  -1788.00
2O+HE<=>O2+HE                            1.886e+13    0.000  -1788.00
O+H+M<=>OH+M                             4.714e+18   -1.000      0.00
AR/0.75/ H2/2.50/ H2O/12.00/ HE/0.75/ CO/1.90/ CO2/3.80/ 
H2O+M<=>H+OH+M                           6.064e+27   -3.322 120789.91
N2/2.00/ O2/1.50/ H2/3.00/ H2O/0.00/ HE/1.10/ CO/1.90/ CO2/3.80/ 
2H2O<=>H+OH+H2O                          1.006e+26   -2.440 120179.97
H+O2(+M)<=>HO2(+M)                       4.651e+12    0.440      0.00
AR/0.67/ O2/0.78/ H2/2.00/ H2O/14.00/ HE/0.80/ CO/1.90/ CO2/3.80/ 
     LOW  /  6.366e+20   -1.720    524.86 /
!     FCCHECK/     0.5     1e-30    0.5     1e+30      0         0
     TROE/     0.5    1e-30     1e+30        /
HO2+H<=>H2+O2                            2.750e+06    2.090  -1451.00
HO2+H<=>2OH                              7.079e+13    0.000    294.93
HO2+O<=>O2+OH                            2.850e+10    1.000   -723.95
OH+HO2<=>H2O+O2                          1.930e+20   -2.490    584.24
     DUPLICATE
OH+HO2<=>H2O+O2                          1.210e+09    1.240  -1307.58
     DUPLICATE
2HO2<=>H2O2+O2                           1.214e+10    0.422  -1480.52
     DUPLICATE
2HO2<=>H2O2+O2                           1.688e+16   -0.681  12931.66
     DUPLICATE
H2O2(+M)<=>2OH(+M)                       2.000e+12    0.900  48749.04
N2/1.50/ O2/1.20/ H2/3.70/ H2O/7.50/ HE/0.65/ H2O2/7.70/ CO/2.80/ CO2/1.60/ 
     LOW  /  2.490e+24   -2.300  48750.00 /
!     FCCHECK/    0.57     1e-30   0.43     1e+30      0         0
     TROE/    0.43    1e-30     1e+30        /
H2O2+H<=>H2O+OH                          2.410e+13    0.000   3969.89
H2O2+H<=>HO2+H2                          4.820e+13    0.000   7950.05
H2O2+O<=>OH+HO2                          9.550e+06    2.000   3969.89
H2O2+OH<=>HO2+H2O                        1.740e+12    0.000    318.12
     DUPLICATE
H2O2+OH<=>HO2+H2O                        7.590e+13    0.000   7270.08
     DUPLICATE
CO+O(+M)<=>CO2(+M)                       1.800e+10    0.000   2385.28
AR/0.70/ H2/2.00/ H2O/12.00/ CO/1.75/ CO2/3.60/ 
     LOW  /  1.550e+24   -2.790   4192.16 /
!     FCCHECK/       0         0      0         0      1         0
     TROE/       1     1.00 10000000.00 10000000.00 /
CO+OH<=>CO2+H                            2.300e+07    1.350    974.00
PLOG /     0.013 2.100e+05    1.900  -1064.00 /
PLOG /     0.132 2.500e+05    1.880  -1043.00 /
PLOG /     1.315 8.700e+05    1.730   -685.00 /
PLOG /    13.158 6.800e+06    1.480     48.00 /
PLOG /   131.580 2.300e+07    1.350    974.00 /
CO+O2<=>CO2+O                            1.050e+12    0.000  47700.05
CO+HO2<=>CO2+OH                          1.570e+05    2.180  17942.64
HCO+H<=>CO+H2                            1.200e+14    0.000      0.00
HCO+O<=>CO+OH                            3.020e+13    0.000      0.00
HCO+O<=>CO2+H                            3.000e+13    0.000      0.00
HCO+OH<=>CO+H2O                          3.011e+13    0.000      0.00
HCO+CH3<=>CO+CH4                         2.650e+13    0.000      0.00
2HCO<=>CO+CH2O                           2.700e+13    0.000      0.00
HCO+M<=>CO+H+M                           4.748e+11    0.659  14873.80
H2/2.00/ H2O/0.00/ CO/1.75/ CO2/3.60/ CH4/2.00/ C2H6/3.00/ 
HCO+O2<=>CO+HO2                          1.200e+10    0.807   -727.00
C+OH<=>CO+H                              5.000e+13    0.000      0.00
C+O2<=>CO+O                              5.800e+13    0.000    576.00
CH+H<=>C+H2                              1.650e+14    0.000      0.00
CH+O<=>CO+H                              5.700e+13    0.000      0.00
CH+OH<=>HCO+H                            3.000e+13    0.000      0.00
CH+H2<=>TXCH2+H                          1.080e+14    0.000   3109.46
CH+H2(+M)<=>CH3(+M)                      1.970e+12    0.430   -370.46
AR/0.70/ H2/2.00/ H2O/12.00/ CO/1.75/ CO2/3.60/ CH4/2.00/ C2H6/3.00/ 
     LOW  /  4.820e+25   -2.800    590.34 /
     TROE/   0.578      122      2535      9365 /
CH+H2O<=>CH2O+H                          5.710e+12    0.000   -755.26
CH+O2<=>HCO+O                            6.710e+13    0.000      0.00
CH+CO(+M)<=>HCCO(+M)                     5.000e+13    0.000      0.00
AR/0.70/ H2/2.00/ H2O/12.00/ CO/1.75/ CO2/3.60/ CH4/2.00/ C2H6/3.00/ 
     LOW  /  2.690e+28   -3.740   1935.95 /
     TROE/  0.5757      237      1652      5069 /
CH+CO2<=>HCO+CO                          1.900e+14    0.000  15791.11
CO+H2(+M)<=>CH2O(+M)                     4.300e+07    1.500  79600.86
AR/0.70/ H2/2.00/ H2O/12.00/ CO/1.75/ CO2/3.60/ CH4/2.00/ C2H6/3.00/ 
     LOW  /  5.070e+27   -3.420  84349.90 /
     TROE/   0.932      197      1540     10300 /
HCO+H(+M)<=>CH2O(+M)                     1.090e+12    0.480   -260.52
AR/0.70/ H2/2.00/ H2O/12.00/ CO/1.75/ CO2/3.60/ CH4/2.00/ C2H6/3.00/ 
     LOW  /  2.470e+24   -2.570    425.43 /
     TROE/  0.7824      271      2755      6570 /
TXCH2+H(+M)<=>CH3(+M)                    6.000e+14    0.000      0.00
AR/0.70/ H2/2.00/ H2O/12.00/ CO/1.75/ CO2/3.60/ CH4/2.00/ C2H6/3.00/ 
     LOW  /  1.040e+26   -2.760   1598.95 /
     TROE/   0.562       91      5836      8552 /
TXCH2+O<=>HCO+H                          8.000e+13    0.000      0.00
TXCH2+OH<=>CH2O+H                        2.000e+13    0.000      0.00
TXCH2+OH<=>CH+H2O                        1.130e+07    2.000   2999.52
TXCH2+H2<=>H+CH3                         5.000e+05    2.000   7229.92
TXCH2+O2=>CO2+2H                         5.800e+12    0.000   1500.96
TXCH2+O2<=>CH2O+O                        2.400e+12    0.000   1500.96
TXCH2+O2=>OH+H+CO                        5.000e+12    0.000   1500.96
TXCH2+HO2<=>CH2O+OH                      2.000e+13    0.000      0.00
TXCH2+C<=>C2H+H                          5.000e+13    0.000      0.00
TXCH2+CO(+M)<=>CH2CO(+M)                 8.100e+11    0.500   4510.04
AR/0.70/ H2/2.00/ H2O/12.00/ CO/1.75/ CO2/3.60/ CH4/2.00/ C2H6/3.00/ 
     LOW  /  2.690e+33   -5.110   7096.08 /
     TROE/  0.5907      275      1226      5185 /
TXCH2+CH<=>C2H2+H                        4.000e+13    0.000      0.00
2TXCH2<=>C2H2+H2                         1.600e+15    0.000  11943.12
2TXCH2=>C2H2+2H                          2.000e+14    0.000  10989.48
SXCH2+N2<=>TXCH2+N2                      1.500e+13    0.000    599.90
SXCH2+AR<=>TXCH2+AR                      9.000e+12    0.000    599.90
SXCH2+H<=>CH+H2                          3.000e+13    0.000      0.00
SXCH2+O<=>CO+H2                          1.500e+13    0.000      0.00
SXCH2+O<=>HCO+H                          1.500e+13    0.000      0.00
SXCH2+OH<=>CH2O+H                        3.000e+13    0.000      0.00
SXCH2+H2<=>CH3+H                         7.000e+13    0.000      0.00
SXCH2+O2<=>H+OH+CO                       2.800e+13    0.000      0.00
SXCH2+O2<=>CO+H2O                        1.200e+13    0.000      0.00
CH3OH(+M)<=>SXCH2+H2O(+M)                3.121e+18   -1.017  91712.00

     LOW  /  1.430e+47   -8.227  99417.10 /
     TROE/  0.9922    47310       943     47110 /
SXCH2+H2O<=>TXCH2+H2O                    3.000e+13    0.000      0.00
SXCH2+H2O=>H2+CH2O                       6.820e+10    0.250   -934.51
SXCH2+CO<=>TXCH2+CO                      9.000e+12    0.000      0.00
SXCH2+CO2<=>TXCH2+CO2                    7.000e+12    0.000      0.00
SXCH2+CO2<=>CH2O+CO                      1.400e+13    0.000      0.00
CH2OH(+M)<=>CH2O+H(+M)                   7.370e+10    0.811  39585.00
AR/0.85/ H2/2.00/ H2O/6.00/ HE/0.67/ CO/1.50/ CO2/2.00/ CH2O/2.50/ CH3OH/3.00/ 
CH4/2.00/ C2H6/3.00/ 
     LOW  /  3.500e+21   -1.990  24000.00 /
     TROE/   0.844      900         1      3315 /
CH3O(+M)<=>CH2O+H(+M)                    1.130e+10    1.210  24084.90
AR/0.85/ H2/2.00/ H2O/6.00/ HE/0.67/ CO/1.50/ CO2/2.00/ CH3OH/3.00/ CH4/2.00/ 
C2H6/3.00/ 
     LOW  /  6.022e+16   -0.547  18023.90 /
     TROE/   0.341       28      1000      2339 /
CH2O+H<=>HCO+H2                          5.740e+07    1.900   2741.40
CH2O+O<=>HCO+OH                          3.900e+13    0.000   3539.67
CH2O+OH<=>HCO+H2O                        3.430e+09    1.180   -446.94
CH2O+O2<=>HCO+HO2                        1.000e+14    0.000  40000.00
CH2O+HO2<=>HCO+H2O2                      5.600e+06    2.000  12000.48
CH2O+CH<=>CH2CO+H                        9.460e+13    0.000   -516.25
CH3+H(+M)<=>CH4(+M)                      6.920e+13    0.180      0.00
AR/0.70/ H2/2.00/ H2O/6.00/ CO/1.50/ CO2/2.00/ CH4/5.00/ C2H6/3.00/ 
     LOW  /  3.470e+38   -6.300   5074.09 /
     TROE/   0.783       74      2941      6964 /
CH3+O<=>CH2O+H                           5.540e+13    0.050   -136.00
CH3+O<=>H+H2+CO                          8.310e+12    0.050   -136.00
CH3OH(+M)<=>CH3+OH(+M)                   2.084e+18   -0.615  92540.60

     LOW  /  1.500e+43   -6.995  97992.20 /
     TROE/  0.7656    59.51      1910      9374 /
CH3+OH<=>TXCH2+H2O                       4.293e+04    2.568   3997.80
CH3+OH<=>CH2O+H2                         3.502e+05    1.441  -3244.00
PLOG /     0.010 3.502e+05    1.441  -3244.00 /
PLOG /     0.100 8.854e+05    1.327  -2975.00 /
PLOG /     1.000 1.650e+07    0.973  -2010.00 /
PLOG /    10.000 5.374e+09    0.287    280.00 /
PLOG /   100.000 9.494e+18   -2.199   9769.00 /
CH3+OH<=>SXCH2+H2O                       4.936e+14   -0.669   -445.80
PLOG /     0.010 4.936e+14   -0.669   -445.80 /
PLOG /     0.100 1.207e+15   -0.778   -175.60 /
PLOG /     1.000 5.282e+17   -1.518   1772.00 /
PLOG /    10.000 4.788e+23   -3.155   7003.00 /
PLOG /   100.000 8.433e+19   -1.962   8244.00 /
CH3+OH<=>HCOH+H2                         7.250e+20   -2.402   9639.00
PLOG /     0.010 8.674e+08    0.787  -3046.00 /
PLOG /     0.100 3.115e+09    0.630  -2669.00 /
PLOG /     1.000 1.557e+11    0.156  -1368.00 /
PLOG /    10.000 1.704e+21   -2.641   6412.00 /
PLOG /   100.000 7.250e+20   -2.402   9639.00 /
HCOH+O2=>CO2+H+OH                        5.000e+12    0.000      0.00
HCOH+O2<=>CO2+H2O                        3.000e+13    0.000      0.00
HCOH+O=>CO2+2H                           5.000e+13    0.000      0.00
HCOH+O=>CO+OH+H                          3.000e+13    0.000      0.00
HCOH+H<=>CH2O+H                          2.000e+14    0.000      0.00