THERMO ALL
   300.000  1000.000  4000.000
HE                000000HE  1               G    300.00   4000.00 1000.00      1
 2.50000000E+00 0.00000000E+00 0.00000000E+00 0.00000000E+00 0.00000000E+00    2
-7.45375000E+02 9.28723974E-01 2.50000000E+00 0.00000000E+00 0.00000000E+00    3
 0.00000000E+00 0.00000000E+00-7.45375000E+02 9.28723974E-01                   4
AR                000000AR  1               G    300.00   4000.00 1000.00      1
 2.50000000E+00 0.00000000E+00 0.00000000E+00 0.00000000E+00 0.00000000E+00    2
-7.45375000E+02 4.36600000E+00 2.50000000E+00 0.00000000E+00 0.00000000E+00    3
 0.00000000E+00 0.00000000E+00-7.45375000E+02 4.36600000E+00                   4
N2                000000N   2               G    300.00   4000.00 1000.00      1
 2.92663788E+00 1.48797700E-03-5.68476030E-07 1.00970400E-10-6.75335090E-15    2
-9.22795384E+02 5.98054018E+00 3.29867700E+00 1.40823990E-03-3.96322180E-06    3
 5.64151480E-09-2.44485400E-12-1.02090000E+03 3.95037200E+00                   4
O2                000000O   2               G    300.00   4000.00 1000.00      1
 3.69757685E+00 6.13519690E-04-1.25884200E-07 1.77528100E-11-1.13643500E-15    2
-1.23392966E+03 3.18917125E+00 3.21293600E+00 1.12748610E-03-5.75614990E-07    3
 1.31387700E-09-8.76855390E-13-1.00524900E+03 6.03473900E+00                   4
H2                000000H   2               G    300.00   4000.00 1000.00      1
 2.99142220E+00 7.00064410E-04-5.63382800E-08-9.23157820E-12 1.58275200E-15    2
-8.35033546E+02-1.35510641E+00 3.29812400E+00 8.24944120E-04-8.14301470E-07    3
-9.47543430E-11 4.13487200E-13-1.01252100E+03-3.29409400E+00                   4
H2O               000000O   1H   2          G    300.00   4000.00 1000.00      1
 2.67214569E+00 3.05629290E-03-8.73026070E-07 1.20099600E-10-6.39161790E-15    2
-2.98992115E+04 6.86281125E+00 3.38684200E+00 3.47498200E-03-6.35469590E-06    3
 6.96858040E-09-2.50658800E-12-3.02081100E+04 2.59023200E+00                   4
H2O2              000000O   2H   2          G    300.00   4000.00 1000.00      1
 4.57316594E+00 4.33613590E-03-1.47468900E-06 2.34890300E-10-1.43165410E-14    2
-1.80069531E+04 5.01137915E-01 3.38875300E+00 6.56922580E-03-1.48501200E-07    3
-4.62580510E-09 2.47151410E-12-1.76631400E+04 6.78536300E+00                   4
CO                000000O   1C   1          G    300.00   4000.00 1000.00      1
 3.02507617E+00 1.44268900E-03-5.63082720E-07 1.01858100E-10-6.91095110E-15    2
-1.42683499E+04 6.10822521E+00 3.26245100E+00 1.51194100E-03-3.88175520E-06    3
 5.58194380E-09-2.47495100E-12-1.43105400E+04 4.84889700E+00                   4
CO2               000000O   2C   1          G    300.00   4000.00 1000.00      1
 4.45362582E+00 3.14016800E-03-1.27841100E-06 2.39399610E-10-1.66903300E-14    2
-4.89669524E+04-9.55420007E-01 2.27572400E+00 9.92207230E-03-1.04091100E-05    3
 6.86668590E-09-2.11728010E-12-4.83731400E+04 1.01884900E+01                   4
CH2O              000000O   1H   2C   1     G    300.00   4000.00 1000.00      1
 2.99560858E+00 6.68132120E-03-2.62895400E-06 4.73715290E-10-3.21251710E-14    2
-1.53203666E+04 6.91256052E+00 1.65273100E+00 1.26314400E-02-1.88816790E-05    3
 2.05003110E-08-8.41323710E-12-1.48654000E+04 1.37848200E+01                   4
CH4               000000H   4C   1          G    300.00   4000.00 1000.00      1
 1.68346564E+00 1.02372400E-02-3.87512820E-06 6.78558490E-10-4.50342310E-14    2
-1.00807773E+04 9.62347575E+00 7.78741700E-01 1.74766800E-02-2.78340900E-05    3
 3.04970800E-08-1.22393100E-11-9.82522800E+03 1.37221900E+01                   4
CH3OH             000000O   1H   4C   1     G    300.00   4000.00 1000.00      1
 4.02907793E+00 9.37659290E-03-3.05025380E-06 4.35879300E-10-2.22472310E-14    2
-2.61579223E+04 2.37808255E+00 2.66011500E+00 7.34150780E-03 7.17005010E-06    3
-8.79319370E-09 2.39056990E-12-2.53534800E+04 1.12326300E+01                   4
CH3OOH            000000O   2H   4C   1     G    300.00   4000.00 1000.00      1
 5.63694993E+00 1.11814780E-02-3.69593390E-06 4.07189810E-10 0.00000000E+00    2
-1.80442749E+04-1.24166637E+00 5.86865100E+00 1.07942400E-02-3.64552990E-06    3
 5.41291180E-10-2.89684390E-14-1.81268900E+04-2.51762300E+00                   4
C2H2              000000H   2C   2          G    300.00   4000.00 1000.00      1
 4.43677300E+00 5.37603910E-03-1.91281610E-06 3.28637890E-10-2.15670900E-14    2
 2.56676622E+04-2.80035722E+00 2.01356200E+00 1.51904500E-02-1.61631910E-05    3
 9.07899180E-09-1.91274600E-12 2.61244400E+04 8.80537800E+00                   4
CH2CO             000000O   1H   2C   2     G    300.00   4000.00 1000.00      1
 6.03885318E+00 5.80484000E-03-1.92095400E-06 2.79448500E-10-1.45886800E-14    2
-8.58343402E+03-7.65782305E+00 2.97497100E+00 1.21187100E-02-2.34504600E-06    3
-6.46668500E-09 3.90564900E-12-7.63263700E+03 8.67355300E+00                   4
C2H2O2            000000O   2H   2C   2     G    300.00   4000.00 1386.00      1
 9.75438561E+00 4.97645947E-03-1.74410483E-06 2.75586994E-10-1.61969892E-14    2
-2.95832896E+04-2.61878329E+01 1.88105120E+00 2.36386368E-02-1.83443295E-05    3
 6.84842963E-09-9.92733674E-13-2.69280190E+04 1.59154793E+01                   4
C2H4              000000H   4C   2          G    300.00   4000.00 1000.00      1
 3.52841648E+00 1.14851800E-02-4.41838480E-06 7.84460000E-10-5.26684780E-14    2
 4.42829030E+03 2.23039249E+00-8.61487900E-01 2.79616190E-02-3.38867690E-05    3
 2.78515200E-08-9.73787890E-12 5.57304700E+03 2.42114800E+01                   4
CH3CHO            000000O   1H   4C   2     G    300.00   4000.00 1000.00      1
 5.86869116E+00 1.07942400E-02-3.64552990E-06 5.41291180E-10-2.89684390E-14    2
-2.26457128E+04-6.01321650E+00 2.50569500E+00 1.33699100E-02 4.67195290E-06    3
-1.12814000E-08 4.26356610E-12-2.12458800E+04 1.33508900E+01                   4
C2H4O             000000O   1H   4C   2     G    300.00   4000.00 1000.00      1
 3.85543260E+00 1.46081760E-02-5.26121540E-06 6.28115500E-10 0.00000000E+00    2
-8.51874300E+03 2.14156911E+00-1.30385500E+00 2.82461720E-02-1.70593430E-05    3
 3.94753470E-09 0.00000000E+00-7.07559900E+03 2.89352600E+01                   4
CH3COOH           000000O   2H   4C   2     G    300.00   4000.00 1000.00      1
 6.91666936E+00 1.28920800E-02-4.20990320E-06 4.58049540E-10 0.00000000E+00    2
-5.53508487E+04-1.02392103E+01 8.46928500E-01 2.92145000E-02-1.86455200E-05    3
 4.64098720E-09 0.00000000E+00-5.36761800E+04 2.11901500E+01                   4
C2H4O2            000000O   2H   4C   2     G    300.00   4000.00 1358.00      1
 8.87306567E+00 9.92257253E-03-3.34820779E-06 5.15546009E-10-2.97527820E-14    2
-4.10084739E+04-1.82786314E+01 4.37688685E+00 1.59485358E-02-3.63672718E-06    3
-1.79212805E-09 7.41898956E-13-3.89689472E+04 7.50888268E+00                   4
C2XOQOOH          000000O   3H   4C   2     G    300.00   4000.00 1380.00      1
 1.24064339E+01 9.47233784E-03-3.28107928E-06 5.13772211E-10-2.99872803E-14    2
-3.49123142E+04-3.39479874E+01 5.52382546E+00 2.42068306E-02-1.52898974E-05    3
 5.01728362E-09-6.96406358E-13-3.23406789E+04 3.57240645E+00                   4
DMEXOQOOH         000000O   4H   4C   2     G    300.00   4000.00 1000.00      1
 1.14777196E+01 8.31667150E-03-1.85084560E-06 1.03274160E-10 0.00000000E+00    2
-4.51075908E+04-2.90204723E+01 4.84746000E+00 2.18580610E-02-9.04284660E-06    3
 3.84145300E-10 0.00000000E+00-4.29209100E+04 6.74072600E+00                   4
C2H6              000000H   6C   2          G    300.00   4000.00 1000.00      1
 4.82597579E+00 1.38404300E-02-4.55725790E-06 6.72496720E-10-3.59816110E-14    2
-1.27178296E+04-5.23976258E+00 1.46253900E+00 1.54946700E-02 5.78050690E-06    3
-1.25783200E-08 4.58626710E-12-1.12391800E+04 1.44322900E+01                   4
C2H5OH            000000O   1H   6C   2     G    300.00   4000.00 1000.00      1
 4.34717120E+00 1.86288000E-02-6.77946700E-06 8.16592600E-10 0.00000000E+00    2
-3.06615743E+04 3.24247304E+00 5.76535800E-01 2.89451200E-02-1.61002000E-05    3
 3.59164100E-09 0.00000000E+00-2.96359500E+04 2.27081300E+01                   4
CH3OCH3           000000O   1H   6C   2     G    300.00   4000.00 1368.00      1
 8.27732656E+00 1.32135539E-02-4.53264362E-06 7.05316507E-10-4.09933283E-14    2
-2.61980897E+04-2.15181376E+01 1.50763450E+00 2.39914228E-02-8.68910500E-06    3
-9.66835762E-11 4.89319361E-13-2.32810894E+04 1.67317297E+01                   4
C2H5OOH           000000O   2H   6C   2     G    300.00   4000.00 1000.00      1
 9.14611907E+00 1.44611400E-02-4.55120020E-06 4.75780030E-10 0.00000000E+00    2
-2.36690607E+04-2.05899250E+01 2.23998300E+00 3.10914290E-02-1.70933710E-05    3
 3.29379790E-09 0.00000000E+00-2.16018500E+04 1.58174300E+01                   4
C3H2              000000H   2C   3          G    300.00   4000.00 1000.00      1
 7.67099642E+00 2.74874900E-03-4.37094300E-07-6.45559900E-11 1.66388700E-14    2
 6.25972092E+04-1.23689926E+01 3.16671400E+00 2.48257200E-02-4.59163700E-05    3
 4.26801900E-08-1.48215200E-11 6.35042100E+04 8.86944600E+00                   4
AC3H4             000000H   4C   3          G    300.00   4000.00 1400.07      1
 9.77625145E+00 5.30213820E-03-3.70111790E-07-3.02638610E-10 5.08958110E-14    2
 1.95497314E+04-3.07705909E+01 2.53983090E+00 1.63343700E-02-1.76495000E-06    3
-4.64736520E-09 1.72913110E-12 2.25124300E+04 9.93570230E+00                   4
PC3H4             000000H   4C   3          G    300.00   4000.00 1000.00      1
 2.81460543E+00 1.85524496E-02-9.55026768E-06 2.39951370E-09-2.37485257E-13    2
 2.07010771E+04 8.60604972E+00 1.46175323E+00 2.46026602E-02-1.90219395E-05    3
 8.60363422E-09-1.66729240E-12 2.09209793E+04 1.49262585E+01                   4
C2H3CHO           000000O   1H   4C   3     G    300.00   4000.00 1393.00      1
 1.04184607E+01 9.48963321E-03-3.29310529E-06 5.16279203E-10-3.01587291E-14    2
-1.49629790E+04-3.07232511E+01 2.92355162E-01 3.54321417E-02-2.94936324E-05    3
 1.28100124E-08-2.26144108E-12-1.16521584E+04 2.28878280E+01                   4
ETC3H4O2          000000O   2H   4C   3     G    300.00   4000.00 1404.00      1
 1.30577477E+01 9.06905120E-03-3.08189261E-06 4.76481380E-10-2.75669277E-14    2
-3.69274825E+04-4.25273740E+01 1.47485987E-01 4.64706296E-02-4.51901760E-05    3
 2.19641008E-08-4.16219125E-12-3.31809255E+04 2.42182934E+01                   4
KEA3G2            000000O   4H   4C   3     G    300.00   4000.00 1387.00      1
 1.81968761E+01 9.69596202E-03-3.46745864E-06 5.54656443E-10-3.28580734E-14    2
-5.16082242E+04-6.35352355E+01 2.50467570E+00 4.88029917E-02-4.12131137E-05    3
 1.72927463E-08-2.89618995E-12-4.64346259E+04 1.98237337E+01                   4
KEA3B3            000000O   4H   4C   3     G    300.00   4000.00 1387.00      1
 1.88513241E+01 9.20926912E-03-3.31625639E-06 5.32903065E-10-3.16697392E-14    2
-4.88407829E+04-6.72981510E+01 1.14193480E+00 5.43367117E-02-4.78232702E-05    3
 2.06439596E-08-3.52353283E-12-4.31220565E+04 2.63898462E+01                   4
C3H6              000000H   6C   3          G    300.00   4000.00 1000.00      1
 6.73231663E+00 1.49083400E-02-4.94989900E-06 7.21202210E-10-3.76620390E-14    2
-9.23623057E+02-1.33137684E+01 1.49330700E+00 2.09251700E-02 4.48679380E-06    3
-1.66891190E-08 7.15814600E-12 1.07482600E+03 1.61453400E+01                   4
C3H5OH            000000O   1H   6C   3     G    300.00   4000.00 1000.00      1
 6.65875100E+00 1.79008100E-02-6.12801520E-06 9.83706560E-10-6.09475850E-14    2
-1.87194550E+04-4.46185680E+00 3.32545570E+00 2.51539630E-02-1.63055650E-05    3
 1.21609030E-08-5.00807290E-12-1.74250940E+04 1.39104030E+01                   4
C2H5CHO           000000O   1H   6C   3     G    300.00   4000.00 1379.00      1
 8.72954858E+00 1.99253945E-02-7.85642340E-06 1.32736406E-09-8.12865962E-14    2
-2.81462888E+04-2.22846545E+01 4.41647615E+00 1.59069417E-02 9.90305472E-06    3
-1.19062354E-08 2.90135824E-12-2.49124705E+04 6.42168604E+00                   4
CH3COCH3          000000O   1H   6C   3     G    300.00   4000.00 1374.00      1
 9.91426580E+00 1.46030709E-02-5.06085765E-06 7.92682855E-10-4.62739645E-14    2
-3.11168055E+04-2.86116537E+01 1.30767163E+00 2.92021742E-02-1.19045617E-05    3
 6.52150087E-10 4.67751203E-13-2.75328269E+04 1.96395025E+01                   4
C3H6O             000000O   1H   6C   3     G    300.00   4000.00 1000.00      1
 4.33142310E+00 2.36433890E-02-8.75060690E-06 1.06889830E-09 0.00000000E+00    2
-1.38496111E+04 2.15169726E+00 5.07423500E-01 3.18789710E-02-1.37497700E-05    3
 1.65647900E-09 0.00000000E+00-1.26239100E+04 2.26350900E+01                   4
C3H6O2            000000O   2H   6C   3     G    300.00   4000.00 1382.00      1
 1.18936666E+01 1.44153203E-02-4.77525443E-06 7.26036430E-10-4.15285995E-14    2
-4.59271652E+04-3.27285750E+01 2.66613285E+00 3.46302298E-02-2.14380719E-05    3
 6.90469334E-09-9.16939105E-13-4.25706030E+04 1.73358364E+01                   4
C3H8              000000H   8C   3          G    300.00   4000.00 1000.00      1
 7.52530602E+00 1.88903400E-02-6.28392400E-06 9.17937280E-10-4.81240960E-14    2
-1.64646226E+04-1.78445202E+01 8.96921000E-01 2.66898590E-02 5.43142510E-06    3
-2.12600000E-08 9.24333010E-12-1.39549200E+04 1.93553300E+01                   4
IC3H7OH           000000O   1H   8C   3     G    300.00   4000.00 1000.00      1
 5.77239007E+00 2.68947430E-02-1.11795290E-05 2.11392460E-09-1.49320990E-13    2
-3.61710675E+04-3.84089810E+00-1.76838920E-01 4.52559560E-02-3.19190720E-05    3
 1.23062880E-08-2.01412540E-12-3.46643940E+04 2.63322250E+01                   4
NC3H7OH           000000O   1H   8C   3     G    300.00   4000.00 1396.00      1
 1.07520626E+01 1.80260472E-02-6.03049401E-06 9.22166246E-10-5.29319319E-14    2
-3.61555719E+04-3.10977038E+01 9.78207214E-02 4.20500918E-02-2.67066894E-05    3
 9.03941170E-09-1.28324751E-12-3.23437836E+04 2.64700804E+01                   4
C4H2              000000H   2C   4          G    300.00   4000.00 1000.00      1
 9.03147468E+00 6.04725210E-03-1.94878790E-06 2.75486300E-10-1.38560800E-14    2
 5.29472934E+04-2.38511290E+01 4.00519100E+00 1.98100000E-02-9.86587660E-06    3
-6.63515820E-09 6.07741290E-12 5.42406400E+04 1.84573600E+00                   4
C4H4              000000H   4C   4          G    300.00   4000.00 1000.00      1
 6.65080310E+00 1.61294300E-02-7.19388700E-06 1.49817800E-09-1.18641100E-13    2
 3.11958636E+04-9.79559836E+00-1.91524700E+00 5.27508700E-02-7.16559400E-05    3
 5.50724200E-08-1.72862200E-11 3.29785000E+04 3.14199800E+01                   4
C4H6              000000H   6C   4          G    300.00   4000.00 1000.00      1
 8.23794980E+00 1.73695890E-02-6.15923200E-06 9.79908060E-10-5.78075590E-14    2
 9.23259930E+03-2.03418190E+01 1.12443850E-01 3.43711770E-02-1.11106630E-05    3
-9.21096660E-09 6.20841700E-12 1.18022620E+04 2.30917180E+01                   4
IC3H5CHO          000000O   1H   6C   4     G    300.00   4000.00 1396.00      1
 1.36175682E+01 1.37917192E-02-4.73370118E-06 7.36655226E-10-4.20097974E-14    2
-1.99994281E+04-4.72987367E+01 6.27183793E-01 4.66780254E-02-3.74430631E-05    3
 1.58330542E-08-2.73952155E-12-1.57203117E+04 2.16034294E+01                   4
C3H5CHO           000000O   1H   6C   4     G    300.00   4000.00 1394.00      1
 1.21670926E+01 1.50749706E-02-5.18640017E-06 8.08302587E-10-4.70194864E-14    2
-1.56762389E+04-3.65095664E+01-2.27554121E-02 4.41176181E-02-3.22046234E-05    3
 1.24986163E-08-2.02269249E-12-1.14618192E+04 2.88193193E+01                   4
C4H6O2            000000O   2H   6C   4     G    300.00   4000.00 1375.00      1
 1.35393551E+01 1.68328392E-02-5.87873230E-06 9.25553795E-10-5.42254877E-14    2
-4.62482008E+04-4.37360830E+01 1.82538964E+00 3.77978336E-02-1.72044878E-05    3
 1.95698878E-09 3.98612932E-13-4.15126261E+04 2.14925508E+01                   4
NC4H8             000000H   8C   4          G    300.00   4000.00 1000.00      1
 2.05358410E+00 3.43505070E-02-1.58831970E-05 3.30896620E-09-2.53610450E-13    2
-2.13972310E+03 1.55432010E+01 1.18113800E+00 3.08533800E-02 5.08652470E-06    3
-2.46548880E-08 1.11101930E-11-1.79040040E+03 2.10624690E+01                   4
IC4H8             000000H   8C   4          G    300.00   4000.00 1388.00      1
 1.12258330E+01 1.81795798E-02-6.20348592E-06 9.61444458E-10-5.57088057E-14    2
-7.69983777E+03-3.73306704E+01 9.38433173E-01 3.90547287E-02-2.16437148E-05    3
 5.87267077E-09-6.14435479E-13-3.74817891E+03 1.91442985E+01                   4
MEK               000000O   1H   8C   4     G    300.00   4000.00 1000.00      1
 9.29655016E+00 2.29172746E-02-8.22048591E-06 1.32404838E-09-7.91751980E-14    2
-3.34442311E+04-2.04993263E+01 6.61978185E+00 8.51847835E-03 5.10322077E-05    3
-6.58433042E-08 2.49110484E-11-3.15251691E+04-1.09485469E+00                   4
C3H7CHO           000000O   1H   8C   4     G    300.00   4000.00 1460.00      1
 1.77916692E+01 1.60697035E-02-5.78626200E-06 9.29729307E-10-5.52476040E-14    2
-3.43943030E+04-7.08794705E+01 2.69734263E+00 3.47742121E-02-1.45911329E-06    3
-1.17722414E-08 3.92653613E-12-2.76350928E+04 1.58339562E+01                   4
C4H8O             000000O   1H   8C   4     G    300.00   4000.00 1371.00      1
 1.54228514E+01 1.70211052E-02-6.06347951E-06 9.67354762E-10-5.71992419E-14    2
-2.20196123E+04-6.13882135E+01-2.53690104E+00 5.43995707E-02-3.43390305E-05    3
 1.01079922E-08-1.10262736E-12-1.52980680E+04 3.67400719E+01                   4
IC3H7CHO          000000O   1H   8C   4     G    300.00   4000.00 1391.00      1
 1.37503148E+01 1.83126722E-02-6.28572629E-06 9.78250756E-10-5.68538653E-14    2
-3.26938845E+04-4.77281342E+01-2.73021382E-01 4.89696307E-02-3.12770049E-05    3
 1.00052945E-08-1.27512074E-12-2.76054737E+04 2.83451139E+01                   4
C4H7OH            000000O   1H   8C   4     G    300.00   4000.00 1000.00      1
 8.63167950E+00 2.41150480E-02-8.32957180E-06 1.34433130E-09-8.35340300E-14    2
-2.30779140E+04-1.63015210E+01 1.73864090E+00 3.69849060E-02-6.80297030E-06    3
-1.28647340E-08 6.62652570E-12-2.09184180E+04 2.07395880E+01                   4
NC4XOQOOH         000000O   3H   8C   4     G    300.00   4000.00 1388.00      1
 1.95955254E+01 1.80568312E-02-6.29994700E-06 9.91157547E-10-5.80382406E-14    2
-4.61054913E+04-7.09333761E+01 2.43440296E+00 6.05409309E-02-4.81250984E-05    3
 2.03656751E-08-3.57059537E-12-4.02872220E+04 2.05488821E+01                   4
IC4XOQOOH         000000O   3H   8C   4     G    300.00   4000.00 1390.00      1
 1.95047991E+01 1.81701803E-02-6.34838146E-06 9.99797067E-10-5.85883751E-14    2
-4.50007951E+04-7.05122130E+01 5.49934041E-01 6.42751153E-02-5.01779820E-05    3
 2.03546231E-08-3.38767418E-12-3.85647626E+04 3.07013051E+01                   4
KEHYBU1           000000O   4H   8C   4     G    300.00   4000.00 1396.00      1
 2.19367270E+01 1.80406285E-02-6.26171080E-06 9.81855896E-10-5.73639516E-14    2
-6.64546784E+04-8.13588272E+01-4.45736457E+00 9.47202096E-02-9.37478682E-05    3
 4.64802131E-08-8.99314409E-12-5.87131282E+04 5.51970961E+01                   4
NC4H10            000000H  10C   4          G    300.00   4000.00 1000.00      1
 1.05251152E+01 2.35908740E-02-7.85389060E-06 1.14561140E-09-5.99309560E-14    2
-2.04952316E+04-3.21928008E+01 1.57641510E+00 3.45897230E-02 6.97016090E-06    3
-2.81636370E-08 1.23751170E-11-1.71470040E+04 1.78727420E+01                   4
IC4H10            000000H  10C   4          G    300.00   4000.00 1000.00      1
 5.08434390E+00 3.31851280E-02-1.24047670E-05 1.52753620E-09 0.00000000E+00    2
-1.95243797E+04-3.92308050E+00-1.28398800E+00 5.19486400E-02-3.08267920E-05    3
 7.55438110E-09 0.00000000E+00-1.79038400E+04 2.85063500E+01                   4
N1C4H9OH          000000O   1H  10C   4     G    300.00   4000.00 1389.00      1
 1.46461472E+01 2.17370421E-02-7.45243572E-06 1.15877769E-09-6.72987557E-14    2
-4.06432319E+04-5.09926617E+01 1.29085275E-01 5.29074664E-02-3.25907761E-05    3
 1.02723019E-08-1.33027252E-12-3.52672374E+04 2.80463660E+01                   4
N2C4H9OH          000000O   1H  10C   4     G    300.00   4000.00 1390.00      1
 1.51582366E+01 2.15048627E-02-7.41631184E-06 1.15764678E-09-6.74130532E-14    2
-4.29113728E+04-5.49620416E+01-3.04705097E-01 5.67446943E-02-3.87293873E-05    3
 1.41775813E-08-2.20696859E-12-3.73601662E+04 2.85520284E+01                   4
TC4H9OH           000000O   1H  10C   4     G    300.00   4000.00 1395.00      1
 1.51183592E+01 2.14941230E-02-7.30928419E-06 1.13021881E-09-6.53833962E-14    2
-4.50124898E+04-5.75375902E+01-8.61795957E-01 6.03867730E-02-4.45191256E-05    3
 1.77406426E-08-2.95852901E-12-3.95611057E+04 2.78278048E+01                   4
IC4H9OH           000000O   1H  10C   4     G    300.00   4000.00 1426.00      1
 1.45203606E+01 2.18826590E-02-7.41886985E-06 1.14493281E-09-6.61481541E-14    2
-4.15815847E+04-5.16504190E+01-8.08654483E-01 5.68695746E-02-3.79891888E-05    3
 1.33635469E-08-1.95588405E-12-3.61485459E+04 3.10126347E+01                   4
C4H9OOH           000000O   2H  10C   4     G    300.00   4000.00 1389.00      1
 1.82257559E+01 2.15996217E-02-7.48424942E-06 1.17205153E-09-6.84096331E-14    2
-3.42341151E+04-6.70536388E+01 6.07792497E-01 6.24669916E-02-4.44490375E-05    3
 1.67754668E-08-2.65938189E-12-2.80070327E+04 2.78025473E+01                   4
CYC5H4O           000000O   1H   4C   5     G    300.00   4000.00 1000.00      1
 5.58734350E+00 2.54149730E-02-9.29145880E-06 1.12347330E-09 0.00000000E+00    2
 3.39172461E+03-5.52979995E+00-4.27809100E+00 5.46170700E-02-3.80993520E-05    3
 1.05947040E-08 0.00000000E+00 5.89093400E+03 4.46629800E+01                   4
CYC5H6            000000H   6C   5          G    300.00   4000.00 1000.00      1
 2.30537462E-01 4.09571826E-02-2.41588958E-05 6.79763480E-09-7.36374421E-13    2
 1.43779465E+04 2.02551234E+01-5.13691194E+00 6.06953453E-02-4.60552837E-05    3
 1.28457201E-08 7.41214852E-13 1.53675713E+04 4.61567559E+01                   4
C5H8              000000H   8C   5          G    300.00   4000.00 1000.00      1
 7.97205310E+00 2.68614160E-02-9.56546320E-06 1.13079120E-09 0.00000000E+00    2
 5.10466811E+03-1.85090870E+01 1.76636500E+00 4.32678800E-02-2.37613290E-05    3
 5.12588110E-09 0.00000000E+00 6.84030700E+03 1.37180600E+01                   4
CYC5H8            000000H   8C   5          G    300.00   4000.00 1000.00      1
 7.72447728E+00 2.83223160E-02-1.15452360E-05 2.15408150E-09-1.50541780E-13    2
-7.82614232E+02-1.97696844E+01 2.68981400E+00 2.09545500E-03 1.13036870E-04    3
-1.54080700E-07 6.27636580E-11 2.31396630E+03 1.52940560E+01                   4
C5H8O             000000O   1H   8C   5     G    300.00   4000.00 1000.00      1
 1.54011002E+01 2.03490440E-02-6.99742510E-06 1.09031908E-09-6.34192782E-14    2
-9.10076428E+03-5.80710041E+01-5.14624016E+00 7.22177875E-02-5.80157542E-05    3
 2.42093068E-08-4.10120178E-12-2.36133441E+03 5.08920452E+01                   4
C5ENXOQOOH        000000O   3H   8C   5     G    300.00   4000.00 1389.00      1
 2.17801959E+01 1.89644170E-02-6.66360530E-06 1.05343196E-09-6.18948648E-14    2
-3.72541821E+04-8.28559128E+01 9.75948412E-01 6.93438350E-02-5.43693801E-05    3
 2.20678107E-08-3.67435527E-12-3.01615960E+04 2.83235620E+01                   4
NC5H10            000000H  10C   5          G    300.00   4000.00 1389.00      1
 1.41108203E+01 2.28348272E-02-7.78626835E-06 1.20627491E-09-6.98795983E-14    2
-1.14335029E+04-5.01593461E+01-5.41560551E-01 5.39629918E-02-3.23508738E-05    3
 9.77416037E-09-1.18534668E-12-5.98606169E+03 2.97142748E+01                   4
IC5H10            000000H  10C   5          G    300.00   4000.00 1000.00      1
 1.24808598E+01 2.40088830E-02-7.77773490E-06 1.19128510E-09-7.09457860E-14    2
-8.64177347E+03-3.92940217E+01-5.99261880E-01 5.40460090E-02-2.94562720E-05    3
 5.25642110E-09 5.85451010E-13-4.50159910E+03 3.03432560E+01                   4
C4H9CHO           000000O   1H  10C   5     G    300.00   4000.00 1507.00      1
 1.97928063E+01 2.17870723E-02-7.80397879E-06 1.24956209E-09-7.40724001E-14    2
-3.82553694E+04-8.01632581E+01 3.92970436E+00 3.74486092E-02 4.27678157E-06    3
-1.68019085E-08 5.08443447E-12-3.06588984E+04 1.25431056E+01                   4
NEOC5H10          000000O   1H  10C   5     G    300.00   4000.00 1406.00      1
 1.82053093E+01 2.22888126E-02-7.59419141E-06 1.17633164E-09-6.81511068E-14    2
-2.60973639E+04-7.85614741E+01-7.04702259E+00 8.64172552E-02-7.02610933E-05    3
 2.90540959E-08-4.80586102E-12-1.79483330E+04 5.50571499E+01                   4
NC5H10            000000O   1H  10C   5     G    300.00   4000.00 1373.00      1
 1.87152768E+01 2.16122625E-02-7.68638433E-06 1.22492227E-09-7.23734176E-14    2
-2.74341627E+04-7.86690289E+01-3.51633623E+00 6.86975884E-02-4.46579237E-05    3
 1.40670556E-08-1.74934766E-12-1.91663581E+04 4.25589840E+01                   4
MTBE              000000O   2H  10C   5     G    300.00   4000.00 1397.00      1
 1.93844587E+01 2.24929046E-02-7.48169734E-06 1.14123661E-09-6.54437288E-14    2
-5.58416627E+04-7.95832532E+01-5.18049059E+00 8.39546669E-02-6.63790553E-05    3
 2.67623941E-08-4.32034827E-12-4.78415885E+04 5.06953652E+01                   4
NEOC5             000000O   3H  10C   5     G    300.00   4000.00 1397.00      1
 2.37028187E+01 2.15843890E-02-7.47470111E-06 1.17038715E-09-6.83143724E-14    2
-5.09464263E+04-9.48314143E+01 1.01097520E+00 7.53376897E-02-5.59848192E-05    3
 2.10040666E-08-3.16727025E-12-4.32003697E+04 2.66737910E+01                   4
NC5XOQOOH         000000O   3H  10C   5     G    300.00   4000.00 1389.00      1
 2.27422860E+01 2.25948063E-02-7.86379640E-06 1.23514506E-09-7.22413862E-14    2
-5.01979972E+04-8.64068664E+01 2.27305950E+00 7.24929431E-02-5.60597536E-05    3
 2.31254746E-08-3.97203084E-12-4.31866364E+04 2.29745558E+01                   4
MTBE              000000O   4H  10C   5     G    300.00   4000.00 1386.00      1
 2.59492704E+01 2.17762181E-02-7.54080079E-06 1.18109778E-09-6.89663912E-14    2
-6.59884236E+04-1.02260628E+02 2.15705064E+00 7.70950997E-02-5.62944956E-05    3
 2.05751475E-08-3.01215733E-12-5.77585957E+04 2.55153989E+01                   4
NC5H12            000000H  12C   5          G    300.00   4000.00 1000.00      1
 1.42233709E+01 2.64253600E-02-8.34599270E-06 1.25651470E-09-7.40004510E-14    2
-2.47106388E+04-5.03994927E+01-3.93634560E-01 5.78781330E-02-2.85392090E-05    3
 3.47472500E-09 1.06523800E-12-1.98713480E+04 2.81908260E+01                   4
NEOC5H12          000000H  12C   5          G    300.00   4000.00 1397.00      1
 1.74488013E+01 2.45462377E-02-8.35182479E-06 1.29219708E-09-7.47942850E-14    2
-2.92378530E+04-7.54164601E+01-2.88372771E+00 7.22417687E-02-5.11106166E-05    3
 1.87342407E-08-2.80628313E-12-2.22171069E+04 3.36765462E+01                   4
MTBE              000000O   1H  12C   5     G    300.00   4000.00 1000.00      1
 8.88656643E+00 4.20057870E-02-1.78904220E-05 3.45077750E-09-2.47674430E-13    2
-4.05353691E+04-2.08281992E+01-1.62610860E+00 7.42240170E-02-5.39682020E-05    3
 2.10023490E-08-3.42702090E-12-3.78579060E+04 3.25557600E+01                   4
NC5H11OOH         000000O   2H  12C   5     G    300.00   4000.00 1391.00      1
 2.15962451E+01 2.59122865E-02-8.96302814E-06 1.40202940E-09-8.17685827E-14    2
-3.95542326E+04-8.52046644E+01-4.43227141E-01 7.81363104E-02-5.73273118E-05    3
 2.22802059E-08-3.61215684E-12-3.18952281E+04 3.30316890E+01                   4
C6H2              000000H   2C   6          G    300.00   4000.00 1000.00      1
 1.27565190E+01 8.03438100E-03-2.61821500E-06 3.72506000E-10-1.87885000E-14    2
 8.07546900E+04-4.04126200E+01 5.75108500E+00 2.63671900E-02-1.16675960E-05    3
-1.07144980E-08 8.79029700E-12 8.26201200E+04-4.33553200E+00                   4
C6H4              000000H   4C   6          G    300.00   4000.00 1000.00      1
 1.71831170E+01 6.64876580E-03-1.24162630E-06 1.46974480E-10-9.13980130E-15    2
 5.50769540E+04-6.44351830E+01 1.93231390E+00 3.90321830E-02-6.92271090E-06    3
-2.70933570E-08 1.57302520E-11 5.96919480E+04 1.65160230E+01                   4
BENZYNE           000000H   4C   6          G    300.00   4000.00 1000.00      1
 1.05707063E+01 1.56860613E-02-5.68267148E-06 9.22956737E-10-5.54966417E-14    2
 5.04976657E+04-3.32563927E+01 7.21604591E-01 2.47976151E-02 3.16372209E-05    3
-6.53230986E-08 2.96082142E-11 5.39797980E+04 2.16733825E+01                   4
C6H4O2            000000O   2H   4C   6     G    300.00   4000.00 1000.00      1
 1.48186534E+01 1.76963450E-02-5.12229240E-06 4.82867020E-10 0.00000000E+00    2
-2.10645982E+04-4.99092297E+01-3.57739600E+00 6.69980650E-02-4.85375860E-05    3
 1.29924900E-08 0.00000000E+00-1.59750500E+04 4.54022300E+01                   4
C6H6              000000H   6C   6          G    300.00   4000.00 1000.00      1
 1.29109067E+01 1.72329600E-02-5.02421020E-06 5.89349680E-10-1.94752100E-14    2
 3.66437279E+03-5.00281184E+01-3.13801200E+00 4.72310300E-02-2.96220700E-06    3
-3.26281900E-08 1.71869100E-11 8.89003000E+03 3.65757300E+01                   4
LC6H6             000000H   6C   6          G    300.00   4000.00 1000.00      1
 1.33755312E+01 1.81053970E-02-6.71790940E-06 1.14930710E-09-7.53903640E-14    2
 3.53349989E+04-4.36278915E+01-2.84372350E+00 7.54240600E-02-8.77316710E-05    3
 5.51440390E-08-1.41557690E-11 3.92169020E+04 3.71208190E+01                   4
C6H5OH            000000O   1H   6C   6     G    300.00   4000.00 1000.00      1
 1.41552427E+01 1.99350340E-02-7.18219540E-06 1.16229002E-09-6.97147483E-14    2
-1.81287441E+04-5.17984911E+01-2.90978575E-01 4.08562397E-02 2.42829425E-05    3
-7.14477617E-08 3.46002146E-11-1.34129780E+04 2.68745637E+01                   4
MCPTD             000000H   8C   6          G    300.00   4000.00 1399.00      1