ELEMENTS
HE AR N  O  H  C  
END
SPECIES
HE                AR                N2                O2                H2                H2O               H2O2              CO                
CO2               CH2O              CH4               CH3OH             CH3OOH            C2H2              CH2CO             C2H2O2            
C2H4              CH3CHO            C2H4O             CH3COOH           C2H4O2            C2XOQOOH          DMEXOQOOH         C2H6              
C2H5OH            CH3OCH3           C2H5OOH           C3H2              AC3H4             PC3H4             C2H3CHO           ETC3H4O2          
KEA3G2            KEA3B3            C3H6              C3H5OH            C2H5CHO           CH3COCH3          C3H6O             C3H6O2            
C3H8              IC3H7OH           NC3H7OH           C4H2              C4H4              C4H6              IC3H5CHO          C3H5CHO           
C4H6O2            NC4H8             IC4H8             MEK               C3H7CHO           C4H8O             IC3H7CHO          C4H7OH            
NC4XOQOOH         IC4XOQOOH         KEHYBU1           NC4H10            IC4H10            N1C4H9OH          N2C4H9OH          TC4H9OH           
IC4H9OH           C4H9OOH           CYC5H4O           CYC5H6            C5H8              CYC5H8            C5H8O             C5ENXOQOOH        
NC5H10            IC5H10            C4H9CHO           NEOC5H10          NC5H10            MTBE              NEOC5             NC5XOQOOH         
MTBE              NC5H12            NEOC5H12          MTBE              NC5H11OOH         C6H2              C6H4              BENZYNE           
C6H4O2            C6H6              LC6H6             C6H5OH            MCPTD             CYC6H8            CYC6H10           CYC6H10XO         
CYC6H10XO         CYC6H10XO         CYC6H10           C5H9CHO           CYC6XOQOOH        CYC6XOQOOH        CYC6XOQOOH        CYC6H12           
NC6H12            TAME              ETBE              DIPE              C6H5CHO           C7H8              C6H5OCH3          C6H5CH2OH         
CRESOL            CH3CH3            NC7H14            NC7H14O           NC7H13OOH         NC7XOQOOH         NC7H16            NC7H15OOH         
C8H2              C6H5C2H           C6H5C2H3          C6H5C2H5          XYLENE            IC8H16            IC8H16O           IC8XOQOOH         
IC8H18            INDENE            C10H8             C10H7OH           C10H7CHO          C10H7CH3          CH3C10H6OH        C12H8             
BIPHENYL          DIFENET           FLUORENE          C6H5CH2C6H5       C14H10            C6H5C2H4C6H5      C16H10            BIN1B             
BIN1A             O                 H                 OH                HO2               CSOLID            C                 CH                
HCO               CH2S              CH2               CH3               CH3O              CH2OH             CH3OO             C2H               
HCCO              C2H3              CH2CHO            CH3CO             C2H5              CH3OCH2           C2H4OH            CH3CHOH           
C2H5OO            C2XQOOH           DMEXQOOH          DMEXOO            C2XOOQOOH         DMEXOOQOOH        C3H3              CH2CHCH2          
CHCHCH3           CH2CCH3           CH3COCH2          RALD3B            RALD3G            CH2OOHCHCHO       CH3CHOOCHO        CH2OOCH2CHO       
CH2CHOOHCHO       CH2OOHCHOOCHO     CH2OOCHOOHCHO     NC3H7             IC3H7             CH3CH2CHOH        CH3CHCH2OH        CH3CH2CH2O        
CH3COHCH3         CH2CHOHCH3        CH2CH2CH2OH       NC3XQOOH          C4H3              C4H5              CH2C3H5           SC4H7             
IC4H7             RALD4B            RALD4G            RALD4D            NC4H9S            IC4H9T            IC4H9P            NC4H9P            
RTC4H9O           RTC4H8OH          CH3CH2CH2CHOH     CH2CH2CHOHCH3     CH3CHCHOHCH3      CH3CH2COHCH3      CH3CH2CH2CH2O     CH3CH2CHOCH3      
CH2CH2CH2CH2OH    CH3CH2CHCH2OH     CH3CH2CHOHCH2     CH3CCH2OHCH3      CH3CHCH2CH2OH     CH3CHCH2OCH3      CH2CHCH2OHCH3     CH3CHCH3CHOH      
IC4T              NC4XQOOH          IC4H9P            NC4H9             IC4P              IC4H9T            QBU1OOX           RBU1OOX           
IC4P              NC4XOOQOOH        IC4T              ZBU1OOX           CYC5H5            C5H5O             C5H7              NC5H9             
ERC4H8CHO         C5ENXQOOH         C5ENXOO           C5ENXOOQOOH       NEOC5H11          NC5H11            RMTBE             NEOC5             
NC5H12OO          NC5XQOOH          NEOC5H11          MTBE              MTBE              NEOC5             NC5XOOQOOH        MTBE              
C6H3              C6H5              LC6H5             C6H5O             CYC6H9            CYC6H11           CYC6              CYC6XQOOH         
CYC6XQOOH         CYC6XQOOH         CYC6XOOQOOH       CYC6XOOQOOH       CYC6XOOQOOH       RDIPE             C7H7              C6H4CH3           
RCRESOLC          RCRESOLO          NC7H13            NC7H13O2          NC7H15            NC7XQOOH          NC7H15            NC7XOOQOOH        
C6H4C2H           C6H5C2H2          RXYLENE           C8H9              IC8H17            IC8XQOOH          IC8T              IC8H17            
IC8XOOQOOH        INDENYL           C10H7             C10H7O            C10H7CH2          C10H6CH3          CH3C10H6O         C12H7             
RBIPHENYL         C14H9             C16H9             
END
REACTIONS
H+O2<=>OH+O                              9.600e+14   -0.200  16720.00
O+H2<=>OH+H                              4.330e+13    0.000  10000.00
H+O2(+M)<=>HO2(+M)                       5.580e+12    0.400      0.00
HE/0.80/ AR/0.80/ N2/1.26/ O2/0.00/ H2/2.50/ H2O/18.00/ CO/1.20/ CO2/2.40/ 
     LOW  /  8.400e+17   -0.800      0.00 /
!     FCCHECK/     0.5     1e-30    0.5     1e+30      0         0
     TROE/     0.5    1e-30     1e+30        /
H+2O2<=>HO2+O2                           8.900e+14    0.000  -2822.00
OH+HO2<=>H2O+O2                          5.000e+13    0.000   1000.00
H+HO2<=>2OH                              2.500e+14    0.000   1900.00
O+HO2<=>O2+OH                            3.250e+13    0.000      0.00
2OH<=>O+H2O                              3.570e+04    2.400  -2110.00
H2+M<=>2H+M                              2.230e+14    0.000  96081.00
HE/0.50/ AR/0.50/ H2/2.50/ H2O/12.00/ CO/1.90/ CO2/3.80/ 
O2+M<=>2O+M                              1.550e+14    0.000 115120.00
HE/0.20/ AR/0.20/ H2/2.50/ H2O/12.00/ CO/1.90/ CO2/3.80/ 
H+OH+M<=>H2O+M                           4.500e+22   -2.000      0.00
H2/2.00/ H2O/16.00/ CO2/1.90/ 
H+HO2<=>H2+O2                            2.500e+13    0.000    700.00
2HO2<=>H2O2+O2                           2.110e+12    0.000      0.00
2OH(+M)<=>H2O2(+M)                       7.400e+13   -0.370      0.00
HE/0.70/ AR/0.70/ N2/0.90/ H2/2.00/ H2O/6.00/ CO/1.50/ CO2/2.00/ CH4/2.00/ 
C2H6/3.00/ 
     LOW  /  1.300e+18   -0.900  -1700.00 /
     TROE/  0.7346       94      1756      5182 /
O+OH+M<=>HO2+M                           1.000e+16    0.000      0.00

O2+CO<=>CO2+O                            2.530e+12    0.000  47700.00
O2+HCO<=>HO2+CO                          3.000e+12    0.000      0.00
CO+O(+M)<=>CO2(+M)                       9.640e+10    0.000   3800.00
AR/0.50/ H2/2.00/ H2O/12.00/ CO/1.50/ CO2/2.00/ 
     LOW  /  2.070e+26   -3.340   7610.00 /
!     FCCHECK/       0         0      0         0      1         0
     TROE/       1     1.00 10000000.00 10000000.00 /
CO+OH<=>CO2+H                            9.600e+11    0.140   7352.00
     DUPLICATE
CO+OH<=>CO2+H                            7.320e+10    0.030    -16.00
     DUPLICATE
CO+HO2<=>CO2+OH                          3.000e+13    0.000  23000.00
CO+H2O<=>CO2+H2                          2.000e+11    0.000  38000.00
H+CH3(+M)<=>CH4(+M)                      1.200e+15   -0.400      0.00
H2/2.00/ H2O/5.00/ CO/2.00/ CO2/3.00/ 
     LOW  /  6.400e+23   -1.800      0.00 /
     SRI/       0.45       797       979         1  /
2CH3(+M)<=>C2H6(+M)                      2.500e+13    0.000      0.00
H2/2.00/ H2O/5.00/ CO/2.00/ CO2/3.00/ 
     LOW  /  2.330e+34   -5.030  -1200.00 /
!     FCCHECK/    0.62        73   0.38      1180      0         0
     TROE/    0.38       73      1180        /
H+C2H5(+M)<=>C2H6(+M)                    5.210e+17   -0.990   1580.00
AR/0.70/ H2O/6.00/ CO/1.50/ CH4/2.00/ C2H6/3.00/ 
     LOW  /  1.990e+41   -7.080   6685.00 /
     TROE/  0.8422      125      2219      6882 /
H+CH2CHCH2<=>H2+AC3H4                    1.810e+13    0.000      0.00
H+CH2CHCH2(+M)<=>C3H6(+M)                1.000e+14    0.000      0.00
AR/0.70/ H2/2.00/ H2O/6.00/ CO/1.50/ CO2/2.00/ CH4/2.00/ C2H6/3.00/ 
     LOW  /  1.330e+60  -12.000   5967.80 /
     TROE/    0.02     1097     10970      6860 /
CH3+C2H5(+M)<=>C3H8(+M)                  9.600e+14   -0.500      0.00

     LOW  /  6.800e+61  -13.420   6000.00 /
     TROE/       1     1000      1434      5329 /
H+NC3H7<=>C3H8                           5.000e+13    0.000      0.00
IC3H7+H(+M)<=>C3H8(+M)                   2.400e+13    0.000      0.00
AR/0.70/ H2/2.00/ H2O/6.00/ CO/1.50/ CO2/2.00/ CH4/2.00/ C2H6/3.00/ 
     LOW  /  1.700e+58  -12.080  11263.70 /
     TROE/   0.649     1213      1213     13370 /
H+C2H(+M)<=>C2H2(+M)                     1.000e+17   -1.000      0.00
AR/0.70/ H2/2.00/ H2O/6.00/ CO/1.50/ CO2/2.00/ CH4/2.00/ C2H6/3.00/ 
     LOW  /  3.750e+33   -4.800   1900.00 /
     TROE/  0.6464      132      1315      5566 /
C2H4(+M)<=>H2+C2H2(+M)                   8.000e+12    0.440  88770.00
AR/0.70/ H2/2.00/ H2O/6.00/ CO/1.50/ CO2/2.00/ CH4/2.00/ C2H6/3.00/ 
     LOW  /  1.580e+51   -9.300  97800.00 /
     TROE/  0.7345      180      1035      5417 /
H+C2H3(+M)<=>C2H4(+M)                    6.080e+12    0.270    280.00
AR/0.70/ H2/2.00/ H2O/6.00/ CO/1.50/ CO2/2.00/ CH4/2.00/ C2H6/3.00/ 
     LOW  /  1.400e+30   -3.860   3320.00 /
     TROE/   0.782    207.5      2663      6095 /
C3H3+H(+M)<=>AC3H4(+M)                   1.000e+17   -0.800    315.00
H2/2.90/ H2O/8.60/ CO/2.10/ CO2/2.90/ CH4/2.90/ C2H6/4.30/ 
     LOW  /  3.500e+33   -4.900   2225.00 /
     TROE/   0.709      134      1784      5740 /
C3H3+H(+M)<=>PC3H4(+M)                   1.000e+17   -0.800    315.00
H2/2.90/ H2O/8.60/ CO/2.10/ CO2/2.90/ CH4/2.90/ C2H6/4.30/ 
     LOW  /  3.500e+33   -4.900   2225.00 /
     TROE/   0.709      134      1784      5740 /
CH3+C2H3(+M)<=>C3H6(+M)                  2.500e+13    0.000      0.00
AR/0.70/ H2/2.00/ H2O/6.00/ CO/1.50/ CO2/2.00/ CH4/2.00/ C2H6/3.00/ 
     LOW  /  4.270e+58  -11.940   9770.00 /
     TROE/   0.175     1341     60000     10140 /
C4H4<=>C2H+C2H3                          1.000e+16    0.000 105000.00
2C4H4<=>C4H3+C4H5                        5.000e+16    0.000  81500.00
C2H3+C2H5(+M)<=>NC4H8(+M)                1.500e+13    0.000      0.00

     LOW  /  1.550e+56  -11.790   8984.40 /
     TROE/   0.198     2278     60000      5723 /
NC4H8<=>CH2CHCH2+CH3                     2.000e+16    0.000  78000.00
SC4H7+H(+M)<=>NC4H8(+M)                  5.000e+13    0.000      0.00
AR/0.70/ H2/2.00/ H2O/6.00/ CO/1.50/ CO2/2.00/ CH4/2.00/ C2H6/3.00/ 
     LOW  /  1.330e+60  -12.000   5967.80 /
     TROE/    0.02     1097     10970      6860 /
IC4H8<=>IC4H7+H                          1.500e+16    0.000  89000.00
C2H3+C2H2<=>C4H4+H                       2.500e+14   -0.710   6700.00
C2H2+C2H3+M<=>C4H5+M                     7.630e+40   -7.760  12000.00

2C2H3<=>C4H6                             1.000e+13    0.000      0.00
C2H2+C2H4<=>C4H6                         5.000e+10    0.000  28000.00
C4H6<=>C4H4+H2                           2.520e+15    0.000  94700.00
H+C2H3<=>H2+C2H2                         3.000e+13    0.000      0.00
H2+C2H4<=>C2H5+H                         1.000e+14    0.000  65000.00
2C2H2<=>C4H3+H                           2.000e+16    0.000  81500.00
H2+C4H3<=>C2H2+C2H3                      5.000e+10    0.000  20000.00
CH3+IC3H7=>CH4+C3H6                      6.000e+10    0.000      0.00
2CH3=>H2+C2H4                            5.000e+14    0.000  32000.00
C2H3+CH3<=>C2H2+CH4                      1.333e+13    0.000      0.00
CH4+C2H4=>CH3+C2H5                       3.000e+13    0.000  62000.00
C2H5+IC3H7=>C3H8+C2H4                    5.000e+11    0.000      0.00
C2H5+C2H3=>NC4H8                         9.000e+12    0.000      0.00
C2H5+SC4H7=>C2H6+C4H6                    1.000e+12    0.000      0.00
2C2H2<=>C2H+C2H3                         1.700e+14    0.000  92000.00
C2H2+C2H4<=>2C2H3                        2.400e+13    0.000  68360.00
H+C4H3<=>C4H2+H2                         1.000e+14    0.000      0.00
H+C4H3<=>C4H4                            1.000e+14    0.000      0.00
H+C4H5<=>C2H2+C2H4                       1.000e+13    0.000      0.00
H+C4H5<=>C4H4+H2                         1.500e+13    0.000      0.00
C2H2+AC3H4<=>C2H+CH2CHCH2                5.000e+14    0.000  73000.00
C2H2+C2H6<=>C2H3+C2H5                    2.000e+14    0.000  60000.00
C2H2+C3H6<=>C2H3+CH2CHCH2                4.000e+13    0.000  46800.00
C2H2+C4H2<=>C2H+C4H3                     3.000e+14    0.000  97000.00
C2H2+C4H4<=>C2H+C4H5                     1.000e+14    0.000  95000.00
C2H2+C4H4<=>C2H3+C4H3                    3.000e+14    0.000  73000.00
2C2H4<=>C2H5+C2H3                        4.800e+14    0.000  71500.00
C2H4+C3H6<=>C2H5+CH2CHCH2                5.780e+13    0.000  51600.00
C2H3+SC4H7=>C2H4+C4H6                    2.000e+12    0.000      0.00
C2H3+IC4H7=>C2H2+IC4H8                   2.000e+12    0.000      0.00
2C3H3=>C2H2+C4H4                         1.000e+11    0.000      0.00
2CH2CHCH2=>AC3H4+C3H6                    2.500e+10    0.000      0.00
CH2CHCH2+C3H3=>C2H2+C4H6                 5.000e+11    0.000      0.00
CH2CHCH2+SC4H7=>C3H6+C4H6                7.000e+11    0.000      0.00
CH2CHCH2+IC4H7=>AC3H4+IC4H8              5.000e+10    0.000      0.00
2SC4H7=>C4H6+NC4H8                       7.000e+11    0.000      0.00
SC4H7+IC4H7=>IC4H8+C4H6                  7.000e+11    0.000      0.00
2C4H6<=>SC4H7+C4H5                       5.000e+14    0.000  64000.00
AC3H4<=>PC3H4                            6.026e+53  -12.180  84276.00
C2H2+H(+M)<=>C2H3(+M)                    5.880e+12    0.000   2770.00
H2/2.00/ H2O/5.00/ CO/2.00/ CO2/3.00/ 
     LOW  /  2.294e+16    0.000   -560.00 /
     TROE/     0.5      675       675     1e+30 /
C2H4+H(+M)<=>C2H5(+M)                    1.770e+13    0.000   2110.00
H2/2.00/ H2O/5.00/ CO/2.00/ CO2/3.00/ 
     LOW  /  4.600e+18    0.000   1070.00 /
     TROE/       1    1e-15        95       200 /
C3H3<=>C3H2+H                            1.000e+13    0.000  79000.00
PC3H4+H(+M)<=>CHCHCH3(+M)                6.500e+12    0.000   2000.00

     LOW  /  8.450e+39   -7.270   6577.00 /
!     FCCHECK/       0         0      0         0      1         0
     TROE/       1     1.00 10000000.00 10000000.00 /
AC3H4+H(+M)<=>CH2CHCH2(+M)               1.200e+11    0.690   3007.00

     LOW  /  5.660e+33   -5.000   4448.00 /
!     FCCHECK/       0         0      0         0      1         0
     TROE/       1     1.00 10000000.00 10000000.00 /
AC3H4+H(+M)<=>CH2CCH3(+M)                8.490e+12    0.000   2000.00

     LOW  /  1.110e+34   -5.000   4448.00 /
!     FCCHECK/       0         0      0         0      1         0
     TROE/       1     1.00 10000000.00 10000000.00 /
CHCHCH3<=>CH3+C2H2                       2.000e+13    0.000  38000.00
CH2CCH3+CH3<=>NC4H8                      3.000e+11    0.000      0.00
H+PC3H4<=>CH2CCH3                        5.000e+13    0.000   4000.00
CH2CCH3<=>CH3+C2H2                       2.000e+13    0.000  38000.00
IC3H7<=>H+C3H6                           5.000e+13    0.000  41000.00
IC3H7<=>NC3H7                            2.000e+12    0.000  42000.00
NC3H7<=>CH3+C2H4                         1.000e+13    0.000  32000.00
NC3H7<=>H+C3H6                           1.000e+13    0.000  39500.00
H+C4H2<=>C4H3                            2.500e+14    0.000   3016.00
C2H+C2H2<=>C4H3                          1.500e+13    0.000      0.00
C4H5<=>H+C4H4                            5.000e+12    0.000  44000.00
H+C4H4<=>C2H4+C2H                        2.000e+13    0.000   2000.00
C4H5<=>C2H+C2H4                          2.000e+12    0.000  60000.00
SC4H7<=>H+C4H6                           2.000e+14    0.000  51000.00
CH2C3H5<=>SC4H7                          2.500e+12    0.000  36000.00
CH2C3H5<=>C2H3+C2H4                      2.500e+13    0.000  38000.00
CH2C3H5<=>H+C4H6                         1.000e+13    0.000  38000.00
CH2C3H5=>IC4H7                           1.000e+14    0.000  50000.00
IC4H7<=>CH3+AC3H4                        1.000e+13    0.000  57000.00
2CH3<=>H+C2H5                            1.400e+14    0.000  14000.00
C2H3+CH3<=>CH2CHCH2+H                    5.000e+01    3.700   5677.00
PC3H4+H<=>C2H2+CH3                       2.000e+05    2.500   1000.00
CH+C3H2<=>C4H2+H                         5.000e+13    0.000      0.00
C3H3+CH<=>C4H2+2H                        5.000e+13    0.000      0.00
C3H3+CH2S<=>C4H4+H                       5.000e+13    0.000      0.00
C3H2+CH3<=>C4H4+H                        1.000e+12    0.000      0.00
C3H3+SC4H7=>C4H4+C3H6                    4.000e+12    0.000      0.00
C3H3+IC4H7=>C4H4+C3H6                    4.000e+12    0.000      0.00
CH3+CH4=>C2H6+H                          2.500e+13    0.000  31000.00
CH3+C4H6=>C2H4+CH2CHCH2                  1.000e+11    0.000   7600.00
C2H5+C2H2=>CH2C3H5                       3.000e+11    0.000   7600.00
C2H5+C3H6=>0.5C2H4+0.5NC3H7+0.5NC4H8+0.5CH3 1.800e+11    0.000   7600.00
C2H5+C4H6=>C2H4+SC4H7                    1.000e+10    0.000   5000.00
NC3H7+C2H4=>C3H6+C2H5                    2.000e+11    0.000   7600.00
IC3H7+C2H4=>0.2NC4H8+0.2CH3+0.8C3H6+0.8C2H5 1.000e+11    0.000   7600.00
IC3H7+C3H6=>NC3H7+C3H6                   5.000e+10    0.000   7600.00
C2H+PC3H4=>C4H2+CH3                      3.000e+11    0.000   8000.00
C3H3+C4H6=>AC3H4+C4H5                    1.000e+13    0.000  22500.00
CH2CHCH2+C3H6=>0.8C2H4+0.8CH2C3H5+0.2C4H6+0.2C2H5 3.000e+11    0.000  18000.00
CH2CHCH2+C3H6=>0.3CH3+0.3CYC5H6+0.3H2+0.7NC4H8+0.7C2H3 2.000e+11    0.000  18000.00
CHCHCH3+C2H4=>C4H6+CH3                   2.000e+11    0.000   6000.00
CHCHCH3+PC3H4=>C3H6+C3H3                 4.000e+11    0.000   3000.00
SC4H7+C2H4=>0.15C4H6+0.15C2H5+0.85CH2CHCH2+0.85C3H6 2.000e+11    0.000  13000.00
CH2C3H5+C2H4=>0.1CH2CHCH2+0.1CHCHCH3+0.2C3H6+0.8C4H6+0.8C2H5 3.000e+11    0.000   7600.00
CH2C3H5+C3H6=>C4H6+NC3H7                 3.000e+11    0.000   7600.00
C2H6<=>C2H4+H2                           3.000e+13    0.000  71000.00
C3H6<=>AC3H4+H2                          1.800e+13    0.000  78000.00
C3H6<=>PC3H4+H2                          1.800e+13    0.000  78000.00
C3H8<=>C3H6+H2                           5.000e+13    0.000  70000.00
2C2H2<=>C4H4                             1.500e+12    0.000  37400.00
2C2H2<=>C4H2+H2                          1.000e+16    0.000  68200.00
C4H4<=>C4H2+H2                           3.500e+11    0.000  66000.00
NC4H8<=>C4H6+H2                          5.000e+13    0.000  70000.00
2C2H4<=>NC4H8                            1.000e+10    0.000  40000.00
2C3H6<=>NC4H8+C2H4                       3.000e+11    0.000  42500.00
2AC3H4=>C2H4+C4H4                        5.000e+11    0.000  25000.00
C2H2+C4H4=>C6H6                          6.000e+12    0.000  37400.00
2C4H4=>C6H6+C2H2                         2.500e+14    0.000  44000.00
C2H2+C4H6=>C6H6+H2                       1.500e+11    0.000  22500.00
C2H4+C4H2=>C6H6                          3.000e+11    0.000  30000.00
CH2O+M<=>CO+H2+M                         8.300e+15    0.000  70000.00
H2/2.50/ H2O/16.00/ CO/1.90/ CO2/3.80/ 
CH2O+M<=>HCO+H+M                         2.000e+16    0.000  75600.00
H2/2.50/ H2O/16.00/ CO/1.90/ CO2/3.80/ 
CH3OH(+M)<=>CH3+OH(+M)                   7.000e+20   -1.300  92000.00

     LOW  /  1.250e+14    0.850  67000.00 /
!     FCCHECK/       0         0      0         0      1         0
     TROE/       1     1.00 10000000.00 10000000.00 /
CH3OH(+M)<=>CH2OH+H(+M)                  1.540e+16    0.000  96800.00

     LOW  /  7.200e+46   -7.930 107700.00 /
!     FCCHECK/       0         0      0         0      1         0
     TROE/       1     1.00 10000000.00 10000000.00 /
CH3CHO<=>CH3+HCO                         1.500e+16    0.000  85000.00
OH+C3H6=>CH3CHO+CH3                      2.000e+12    0.000      0.00
CH3CHO<=>H2+CH2CO                        4.000e+13    0.000  80500.00
CH3CHO<=>CH4+CO                          1.000e+14    0.000  79000.00
H+CH3CO<=>CH3CHO                         1.300e+13    0.000      0.00
O2+C2H2<=>HCCO+OH                        2.000e+07    1.500  30000.00
O2+AC3H4=>CH2O+CH2CO                     1.000e+15    0.000  41000.00
O2+PC3H4=>HCO+CH3CO                      7.000e+13    0.000  41000.00
O2+CH4<=>HO2+CH3                         9.000e+13    0.000  56000.00
O2+CH2O<=>HO2+HCO                        1.300e+14    0.000  41000.00
O2+CH3OH<=>HO2+CH2OH                     2.000e+13    0.000  45000.00
O2+CH3OH<=>HO2+CH3O                      2.500e+12    0.000  55000.00
O2+C2H4<=>HO2+C2H3                       1.000e+14    0.000  60000.00
O2+C2H6<=>HO2+C2H5                       1.000e+14    0.000  50000.00
O2+CH3CHO<=>HO2+CH3CO                    3.000e+13    0.000  39200.00
O2+CH3CHO<=>HO2+CH2CHO                   4.000e+13    0.000  49000.00
O2+C3H8<=>HO2+NC3H7                      6.000e+13    0.000  50000.00
O2+C3H8<=>HO2+IC3H7                      2.000e+13    0.000  46000.00
O2+C3H6<=>HO2+CH2CHCH2                   3.000e+13    0.000  43000.00
O2+NC4H8<=>HO2+SC4H7                     5.000e+13    0.000  41000.00
O2+IC4H8<=>HO2+IC4H7                     5.000e+13    0.000  38000.00
HCO+M<=>CO+H+M                           1.200e+17   -1.000  17000.00
H2/1.90/ H2O/5.00/ CO/1.90/ CO2/3.00/ CH4/2.80/ 
CH3O(+M)<=>CH2O+H(+M)                    6.000e+11    0.000  18000.00

     LOW  /  1.200e+25   -2.700  30600.00 /
!     FCCHECK/       0         0      0         0      1         0
     TROE/       1     1.00 10000000.00 10000000.00 /
CH2OH+M<=>H+CH2O+M                       3.750e+14    0.000  25000.00

CH3CO<=>CH2CO+H                          1.000e+14    0.000  49000.00
CH3CO+M<=>CH3+CO+M                       2.500e+15    0.000  14400.00

H+CH2CO=>CH3+CO                          1.000e+06    2.000   2000.00
H+CH2CO<=>H2+HCCO                        3.600e+14    0.000   8600.00
CH3+CH2CO<=>CH4+HCCO                     3.750e+12    0.000  13000.00
H+CH3OH=>H2O+CH3                         6.500e+11    0.000   5300.00
O+C2H2=>CH2CO                            1.000e+13    0.000  15000.00
O+C2H4=>CH3CHO                           1.000e+09    0.000   5000.00
O+C2H4<=>CH3+HCO                         5.000e+06    1.880    200.00
O+PC3H4<=>C2H4+CO                        5.000e+12    0.000   2102.00
O+AC3H4=>CO+C2H4                         2.000e+13    0.000      0.00
O+C3H6=>HCO+C2H5                         1.000e+13    0.000   3000.00
O+C4H4<=>HCO+C3H3                        3.200e+08    1.440    525.00
O+C4H4=>CO+0.5AC3H4+0.5PC3H4             2.000e+12    0.000   5000.00
O+C4H6=>CO+C3H6                          1.500e+12    0.000      0.00
O+CH2O=>2H+CO2                           2.000e+13    0.000   5000.00
O+CH3CHO=>CH3+H+CO2                      2.000e+13    0.000   3000.00
O+CH2CO=>2HCO                            2.000e+13    0.000   2300.00
O+CH2CO=>CO+CH2O                         1.000e+12    0.000   5000.00
OH+C2H2=>CH3+CO                          1.500e+11    0.000      0.00
OH+CH2O=>H+H2+CO2                        1.000e+11    0.000      0.00
OH+CH2CO=>HCO+CH2O                       1.500e+13    0.000      0.00
OH+CH2CO=>CH3+CO2                        3.000e+12    0.000      0.00
OH+CH3CHO=>CH3+H2+CO2                    2.000e+11    0.000      0.00
OH+AC3H4=>0.5C2H3+0.5CH2O+0.5CH3+0.5CH2CO 5.000e+11    0.000   1000.00
OH+NC4H8=>0.5CH3CHO+0.5C2H5+0.5CH2O+0.5NC3H7 1.500e+12    0.000      0.00
OH+C4H2<=>C2H2+HCCO                      5.000e+12    0.000      0.00
OH+C4H4=>CO+CH2CHCH2                     3.000e+13    0.000      0.00
HO2+C2H2=>CH2O+HCO                       5.000e+12    0.000  15000.00
HO2+PC3H4=>O2+CHCHCH3                    5.000e+12    0.000  15000.00
HCO+C2H2=>CO+C2H3                        5.000e+11    0.000   6000.00
HCO+C4H6=>SC4H7+CO                       5.000e+11    0.000   6000.00
HCO+CH2O<=>CO2+CH3                       5.000e+11    0.000   6000.00
HCO+CH3CHO=>CO2+C2H5                     3.000e+11    0.000   6000.00
C2H3+CH2O=>0.5CH3O+0.5CH2OH+C2H2         5.000e+11    0.000   6000.00
CH3O+CO<=>CO2+CH3                        5.000e+11    0.000   6500.00
O2+C2H2=>CO+CH2O                         3.000e+11    0.000  26000.00
O2+C2H4=>2CH2O                           1.000e+14    0.000  48000.00
O2+C3H6=>CH2O+CH3CHO                     1.000e+14    0.000  39000.00
O2+CH2CO=>CH2O+CO2                       1.000e+14    0.000  37000.00
O2+CH2CO=>OH+HCO+CO                      3.000e+14    0.000  40000.00
O2+C2H2=>2HCO                            3.000e+11    0.000  27000.00
O2+C2H4=>CH3O+HCO                        1.000e+14    0.000  43000.00
O2+C4H6=>O2+C2H2+C2H4                    4.000e+14    0.000  40000.00
O2+CH3O=>HO2+CH2O                        6.000e+11    0.000   6500.00
O2+CH2OH<=>HO2+CH2O                      6.000e+12    0.000      0.00
O2+C2H5=>HO2+C2H4                        1.000e+12    0.000   3000.00
O2+NC3H7=>HO2+C3H6                       4.000e+11    0.000   3000.00
O2+IC3H7=>HO2+C3H6                       1.200e+12    0.000   3000.00
O2+CHCHCH3=>HO2+PC3H4                    5.000e+12    0.000   2000.00
O2+SC4H7=>HO2+C4H6                       3.000e+10    0.000   8000.00
O2+CH2C3H5=>HO2+C4H6                     2.000e+12    0.000   3500.00
O2+CH3<=>CH3O+O                          4.000e+12    0.000  27000.00
O2+C2H<=>CO+HCO                          2.000e+14    0.000   7000.00
O2+C2H<=>CH+CO2                          4.500e+15    0.000  25000.00
O2+C2H3<=>O+CH2CHO                       7.500e+14   -0.610   5260.00
O2+C2H3=>CH2O+HCO                        1.000e+12    0.000   4000.00
O2+C2H3=>CH2CO+OH                        6.000e+11    0.000   1000.00
O2+C2H3<=>C2H2+HO2                       6.000e+09    0.000      0.00
O2+C2H5=>CH3+CH2O+O                      1.000e+13    0.000  27000.00
O2+C2H5=>CH2O+CH3O                       1.000e+14    0.000  24000.00
O2+CH2CHO=>CH2O+OH+CO                    6.000e+10    0.000      0.00
O2+C4H3<=>HCCO+CH2CO                     8.000e+16   -1.800      0.00
C4H3+O<=>CH2CO+C2H                       2.000e+13    0.000      0.00
C4H3+CH2<=>PC3H4+C2H                     2.000e+13    0.000      0.00
C3H3+CH<=>C4H3+H                         7.000e+13    0.000      0.00
O2+C4H5=>CO+0.4CH2O+0.4C2H3+0.6OH+0.3AC3H4+0.3PC3H4 6.000e+13    0.000  15000.00
O2+C4H5=>CH2CO+C2H2+OH                   2.500e+13    0.000  15000.00
O2+IC4H7=>O2+CH3+AC3H4                   8.000e+12    0.000  22000.00
O+CH3+M=>CH3O+M                          5.000e+16    0.000      0.00

O+C2H3=>CH2CHO                           2.500e+13    0.000      0.00
O+C2H5=>0.35CH3CHO+0.35H+0.35CH2O+0.35CH3+0.3C2H4+0.3OH 5.000e+13    0.000      0.00
O+IC3H7=>CH3+CH3CHO                      2.000e+13    0.000      0.00
O+NC3H7=>C2H5+CH2O                       2.000e+13    0.000      0.00
O+CH2CHCH2=>C2H3+CH2O                    3.250e+13    0.000      0.00
O+SC4H7=>0.5CHCHCH3+0.5CH2O+0.5C4H6+0.5OH 5.000e+13    0.000      0.00
O+IC4H7=>CH2CCH3+CH2O                    5.000e+13    0.000      0.00
O+CH2CHO=>CH2O+HCO                       5.000e+13    0.000      0.00
OH+CH3<=>CH2OH+H                         1.100e+13    0.000   6300.00
OH+CH3<=>CH3O+H                          5.100e+11    0.000  13500.00
OH+CH3<=>CH2O+H2                         6.000e+12    0.000      0.00
OH+CH3<=>O+CH4                           2.000e+12    0.000   8000.00
OH+C2H=>0.7C2H2+0.7O+0.3CH2CO            1.000e+12    0.000  13000.00
OH+C2H3=>CH3CHO                          5.000e+12    0.000      0.00
OH+C2H3<=>C2H2+H2O                       4.000e+12    0.000      0.00
OH+C4H3<=>C4H2+H2O                       2.000e+12    0.000      0.00
OH+C4H5<=>C4H4+H2O                       2.000e+12    0.000      0.00
OH+C4H3=>CO+0.5AC3H4+0.5PC3H4            3.000e+12    0.000      0.00
OH+C4H5=>C2H4+CH2CO                      3.000e+12    0.000      0.00
OH+IC4H7=>C3H6+CH2O                      2.000e+12    0.000      0.00
OH+SC4H7=>C2H4+CH3CHO                    2.000e+12    0.000      0.00
OH+SC4H7=>0.5C3H6+0.5C2H4+CO+0.75H2+0.25C2H6 5.000e+12    0.000      0.00
OH+CH3CO=>H2O+CH2CO                      3.000e+12    0.000      0.00
OH+CH2CHO=>H2O+CH2CO                     5.000e+12    0.000      0.00
HO2+CH3<=>CH3O+OH                        6.000e+12    0.000      0.00
HO2+C2H3=>CH2CHO+OH                      3.000e+12    0.000      0.00
HO2+C2H5=>CH3+CH2O+OH                    5.000e+12    0.000      0.00
HO2+CH2CHCH2=>OH+CH2O+C2H3               3.500e+11    0.000      0.00
HO2+CHCHCH3=>C3H6+O2                     5.000e+11    0.000      0.00
HO2+IC4H7=>OH+CH2O+CHCHCH3               3.000e+11    0.000      0.00
HCO+O<=>CO2+H                            3.000e+13    0.000      0.00
HCO+H<=>H2+CO                            5.000e+13    0.000      0.00
HCO+OH<=>H2O+CO                          5.000e+13    0.000      0.00
HCO+HO2<=>H2O2+CO                        4.000e+11    0.000      0.00
HCO+HO2=>H+OH+CO2                        3.000e+13    0.000      0.00
2HCO<=>CH2O+CO                           6.000e+11    0.000      0.00
HCO+CH3<=>CO+CH4                         1.000e+13    0.000      0.00
CH3O+H=>H2+CH2O                          2.000e+13    0.000      0.00
CH3O+OH=>H2O+CH2O                        1.500e+13    0.000      0.00
CH3O+HO2=>H2O2+CH2O                      1.500e+12    0.000      0.00