THERMO
   300.000  1000.000  5000.000
!!    CC[O]
!!    InChI=1S/C2H5O/c1-2-3/h2H2,1H3
C2H5O             000000C   2O   1H   5     G    300.00   5000.00 1000.00      1
 2.46262349E+00 2.09503959E-02-9.39291750E-06 1.56440627E-09 0.00000000E+00    2
-3.83932658E+03 1.28738847E+01 4.94420708E-01 2.71774434E-02-1.65909010E-05    3
 5.15204200E-09-6.48496915E-13-3.35252925E+03 2.28079378E+01                   4
!!    [CH]
!!    InChI=1S/CH/h1H
CH                000000C   1H   1          G    300.00   5000.00 1000.00      1
 2.87846473E+00 9.70913681E-04 1.44445655E-07-1.30687849E-10 1.76079383E-14    2
 7.10124364E+04 5.48497999E+00 3.48981665E+00 3.23835541E-04-1.68899065E-06    3
 3.16217327E-09-1.40609067E-12 7.07972934E+04 2.08401108E+00                   4
!!    OO
!!    InChI=1S/H2O2/c1-2/h1-2H
H2O2              000000O   2H   2          G    300.00   5000.00 1000.00      1
 4.16500285E+00 4.90831694E-03-1.90139225E-06 3.71185986E-10-2.87908305E-14    2
-1.78617877E+04 2.91615662E+00 4.27611269E+00-5.42822417E-04 1.67335701E-05    3
-2.15770813E-08 8.62454363E-12-1.77025821E+04 3.43505074E+00                   4
!!    [CH2]CC=O
!!    InChI=1S/C3H5O/c1-2-3-4/h3H,1-2H2
CH2CH2CHO         000000C   3O   1H   5     G    300.00   5000.00 1000.00      1
-6.77607551E+00 4.53839720E-02-2.31798667E-05 4.07097539E-09 0.00000000E+00    2
 2.90620639E+03 6.64968049E+01 8.36272659E+00-3.90712606E-03 3.59751257E-05    3
-2.69209237E-08 5.98920261E-12-7.55243244E+02-9.53140102E+00                   4
!!    [CH2]  !! triplet[CH2]
!!    InChI=1S/CH2/h1H2
T-CH2             000000C   1H   2          G    300.00   5000.00 1000.00      1
 2.87410113E+00 3.65639292E-03-1.40894597E-06 2.60179549E-10-1.87727567E-14    2
 4.62636040E+04 6.17119324E+00 3.76267867E+00 9.68872143E-04 2.79489841E-06    3
-3.85091153E-09 1.68741719E-12 4.60040401E+04 1.56253185E+00                   4
!!    C1=CC=CC=C1O[CH2]
!!    InChI=1S/C7H7O/c1-8-7-5-3-2-4-6-7/h2-6H,1H2
C6H5OCH2   3/08/16 THERMC   7H   7O   1    0G   300.000  5000.000 1404.000    21
1.95297801E+01 1.87267777E-02-6.38766571E-06 9.90128481E-10-5.73893448E-14    2
6.02346737E+03-7.94661634E+01-4.09410014E+00 8.27000306E-02-7.37585370E-05    3
3.33910070E-08-5.99308538E-12 1.32919235E+04 4.41961425E+01                   4
!!    CO
!!    InChI=1S/CH4O/c1-2/h2H,1H3
CH3OH             000000C   1O   1H   4     G    300.00   5000.00 1000.00      1
 1.78970791E+00 1.40938292E-02-6.36500835E-06 1.38171085E-09-1.17060220E-13    2
-2.53748747E+04 1.45023623E+01 5.71539582E+00-1.52309129E-02 6.52441155E-05    3
-7.10806889E-08 2.61352698E-11-2.56427656E+04-1.50409823E+00                   4
!!    [CH2]
!!    InChI=1S/CH2/h1H2_SINGLET
S-CH2             000000C   1H   2          G    300.00   5000.00 1000.00      1
 2.29203842E+00 4.65588637E-03-2.01191947E-06 4.17906000E-10-3.39716365E-14    2
 5.09259997E+04 8.62650169E+00 4.19860411E+00-2.36661419E-03 8.23296220E-06    3
-6.68815981E-09 1.94314737E-12 5.04968163E+04-7.69118967E-01                   4
!!    [CH]=C=O
!!    InChI=1S/C2HO/c1-2-3/h1H
HCCO              000000C   2O   1H   1     G    300.00   5000.00 1000.00      1
 5.62820580E+00 4.08534010E-03-1.59345470E-06 2.86260520E-10-1.94078320E-14    2
 1.93272150E+04-3.93025950E+00 2.25172140E+00 1.76550210E-02-2.37291010E-05    3
 1.72757590E-08-5.06648110E-12 2.00594490E+04 1.24904170E+01                   4
!!    O=CCCO
!!    InChI=1S/C3H6O2/c4-2-1-3-5/h2,5H,1,3H2
C3H6O2            000000O   2H   6C   3     G    300.00   4000.00 1382.00      1
 1.18936666E+01 1.44153203E-02-4.77525443E-06 7.26036430E-10-4.15285995E-14    2
-4.59271652E+04-3.27285750E+01 2.66613285E+00 3.46302298E-02-2.14380719E-05    3
 6.90469334E-09-9.16939105E-13-4.25706030E+04 1.73358364E+01                   4
!!    C1C=CC=C1
!!    InChI=1S/C5H6/c1-2-4-5-3-1/h1-4H,5H2
C5H6              000000C   5H   6          G    300.00   3000.00 1000.00      1
 2.30537462E-01 4.09571826E-02-2.41588958E-05 6.79763480E-09-7.36374421E-13    2
 1.43779465E+04 2.02551234E+01-5.13691194E+00 6.06953453E-02-4.60552837E-05    3
 1.28457201E-08 7.41214852E-13 1.53675713E+04 4.61567559E+01                   4
!!    CC#C
!!    InChI=1S/C3H4/c1-3-2/h1H,2H3
P-C3H4            000000C   3H   4          G    300.00   5000.00 1000.00      1
 2.81460543E+00 1.85524496E-02-9.55026768E-06 2.39951370E-09-2.37485257E-13    2
 2.07010771E+04 8.60604972E+00 1.46175323E+00 2.46026602E-02-1.90219395E-05    3
 8.60363422E-09-1.66729240E-12 2.09209793E+04 1.49262585E+01                   4
!!       CC1=CC=CC1
!!       InChI=1S/C6H8/c1-6-4-2-3-5-6/h2-4H,5H2,1H3
C5H5CH3-1  8/10/17   LITC   6H   8    0    0G  300.0000 5000.0000 1398.00      1
 1.50340047E+01 2.04185116E-02-6.97043123E-06 1.08100581E-09-6.26770876E-14    2
 4.36152703E+03-5.84840756E+01-4.85526203E+00 7.01843167E-02-5.64257356E-05    3
 2.45599738E-08-4.55996125E-12 1.09594237E+04 4.72361312E+01                   4
!!    [CH2]O
!!    InChI=1S/CH3O/c1-2/h2H,1H2
CH2OH             000000C   1O   1H   3     G    300.00   5000.00 1000.00      1
 3.69266569E+00 8.64576797E-03-3.75101120E-06 7.87234636E-10-6.48554201E-14    2
-3.24250627E+03 5.81043215E+00 3.86388918E+00 5.59672304E-03 5.93271791E-06    3
-1.04532012E-08 4.36967278E-12-3.19391367E+03 5.47302243E+00                   4
!!    [CH2]C(=C)C
!!    InChI=1S/C4H7/c1-4(2)3/h1-2H2,3H3
IXC4H7            000000C   4H   7          G    300.00   5000.00 1000.00      1
 4.86718299E+00 2.75411161E-02-1.19816020E-05 1.93828198E-09 0.00000000E+00    2
 1.34120718E+04-1.04709781E+00-7.20881697E-04 4.36495730E-02-3.16385877E-05    3
 1.23984983E-08-2.04378360E-12 1.45717785E+04 2.33234340E+01                   4
!!    C=C=O
!!    InChI=1S/C2H2O/c1-2-3/h1H2
CH2CO             000000C   2O   1H   2     G    300.00   5000.00 1000.00      1
 4.51129732E+00 9.00359745E-03-4.16939635E-06 9.23345882E-10-7.94838201E-14    2
-7.55105311E+03 6.32247205E-01 2.13583630E+00 1.81188721E-02-1.73947474E-05    3
 9.34397568E-09-2.01457615E-12-7.04291804E+03 1.22156480E+01                   4
!!    C[O]
!!    InChI=1S/CH3O/c1-2/h1H3
CH3O              000000C   1O   1H   3     G    300.00   5000.00 1000.00      1
 3.77079900E+00 7.87149700E-03-2.65638400E-06 3.94443100E-10-2.11261600E-14    2
 1.27832520E+02 2.92957500E+00 2.10620400E+00 7.21659500E-03 5.33847200E-06    3
-7.37763600E-09 2.07561000E-12 9.78601100E+02 1.31521770E+01                   4
!!    C=C=CCC=C
!!    InChI=1S/C6H8/c1-3-5-6-4-2/h3,6H,1-2,5H2
CH2CCHCH2CHCH2          C   6H   8          G   300.000 5000.000 1379.000      1  !\COMMENT:  18 THERM
+1.58520129E+01+1.97066390E-02-6.90722981E-06+1.08998926E-09-6.39582431E-14    2
+2.22042203E+04-5.71482464E+01+4.75032479E-01+5.61981818E-02-4.40031144E-05    3
+2.07777749E-08-4.49682996E-12+2.77606909E+04+2.57614601E+01                   4
!!    [CH2]C=O
!!    InChI=1S/C2H3O/c1-2-3/h2H,1H2
CH2CHO                  C   2H   3O   1     G   298.000 3000.000 1000.000      1  !\COMMENT:
+3.63026330E+00+1.41239404E-02-7.16478146E-06+1.76263004E-09-1.70391996E-13    2
+4.29875072E+02+6.20577997E+00+9.86311004E-01+2.24920216E-02-1.64812936E-05    3
+5.86617239E-09-6.81551147E-13+1.07163704E+03+1.95196726E+01                   4
!!    CC
!!    InChI=1S/C2H6/c1-2/h1-2H3
C2H6              000000C   2H   6          G    300.00   5000.00 1000.00      1
 1.07188150E+00 2.16852677E-02-1.00256067E-05 2.21412001E-09-1.90002890E-13    2
-1.14263932E+04 1.51156107E+01 4.29142492E+00-5.50154270E-03 5.99438288E-05    3
-7.08466285E-08 2.68685771E-11-1.15222055E+04 2.66682316E+00                   4
!!    [CH2]C=C
!!    InChI=1S/C3H5/c1-3-2/h3H,1-2H2
A-C3H5                  H  5 C  3 O  0      G   200.0   3000.0   1000.0        1
 4.22973890E+00 1.88238808E-02-8.86343156E-06 2.03225185E-09-1.84214522E-13    2
 1.78789497E+04 9.28205318E-01 1.47214563E+00 1.77370863E-02 1.80437301E-05    3
-3.95394054E-08 1.83246688E-11 1.89020240E+04 1.68401967E+01                   4
!!    CC=C
!!    InChI=1S/C3H6/c1-3-2/h3H,1H2,2H3     !\COMMENT:  G 2/00
C3H6                    C   3H   6          G   200.000 6000.000 1000.000      1
+6.03870234E+00+1.62963931E-02-5.82130800E-06+9.35936829E-10-5.58603143E-14    2
-7.41715057E+02-8.43825992E+00+3.83464468E+00+3.29078952E-03+5.05228001E-05    3
-6.66251176E-08+2.63707473E-11+7.88717123E+02+7.53408013E+00                   4
!!    CC[C]=O
!!    InChI=1S/C3H5O/c1-2-3-4/h2H2,1H3
C2H5CO            000000C   3O   1H   5     G    300.00   5000.00 1000.00      1
 3.47466548E+00 2.32207586E-02-1.06500291E-05 1.80266137E-09 0.00000000E+00    2
-5.84231374E+03 1.08093318E+01 2.93313946E+00 2.47427911E-02-1.21222003E-05    3
 2.34701048E-09-5.26843338E-14-5.69663063E+03 1.35958355E+01                   4
!!    O=CC=O
!!    InChI=1S/C2H2O2/c3-1-2-4/h1-2H
CHOCHO                  C   2H   2O   2     G   300.000 5000.000 1386.000      1  !\COMMENT:
+9.75438561E+00+4.97645947E-03-1.74410483E-06+2.75586994E-10-1.61969892E-14    2
-2.95832896E+04-2.61878329E+01+1.88105120E+00+2.36386368E-02-1.83443295E-05    3
+6.84842963E-09-9.92733674E-13-2.69280190E+04+1.59154793E+01                   4
!!    CC(=O)CO
!!    InChI=1S/C3H6O2/c1-3(5)2-4/h4H,2H2,1H3
ACETOL            000000O   2H   6C   3     G    300.00   4000.00 1390.00      1
 1.10277409E+01 1.56022896E-02-5.18498789E-06 7.89604263E-10-4.52017356E-14    2
-4.93518932E+04-2.96460029E+01 1.70110573E+00 3.49995386E-02-1.95672111E-05    3
 5.13929120E-09-4.54830190E-13-4.58857790E+04 2.12715964E+01                   4
!!    C=C=C=C[O]
!!    InChI=1S/C4H3O/c1-2-3-4-5/h4H,1H2
C4H3O             000000O   1H   3C   4     G    300.00   4000.00 1000.00      1
 1.29455763E+01 7.95235476E-03-2.80679691E-06 4.45205248E-10-2.62240810E-14    2
 1.75946397E+04-4.78819894E+01-5.84674088E+00 6.20875882E-02-6.30010605E-05    3
 3.06882361E-08-5.75456234E-12 2.30253176E+04 4.92940922E+01                   4
!!    C#C
!!    InChI=1S/C2H2/c1-2/h1-2H
C2H2                    C   2H   2          G   100.000  5000.000  962.80      1
 5.02077795E+00 4.22470269E-03-1.42000136E-06 2.56105133E-10-1.84544863E-14    2
 2.55666188E+04-6.22588857E+00 3.11331938E+00 6.02058533E-03 5.33031324E-06    3
-1.10293378E-08 4.62859887E-12 2.62179845E+04 4.37938268E+00                   4
!!    CC(C)(C)[C]O
!!    InChI=1S/C5H10O/c1-5(2,3)4-6/h6H,1-3H3
IC5H9OH           000000O   1H  10C   5     G    300.00   4000.00 1394.00      1
 1.47423131E+01 2.19843767E-02-7.51584192E-06 1.16633393E-09-6.76421638E-14    2
-4.16616600E+04-5.28466211E+01-8.37465362E-01 5.76520639E-02-3.90215462E-05    3
 1.40131231E-08-2.11159111E-12-3.61265628E+04 3.11701525E+01                   4
!!    [O]
!!    InChI=1S/O
O                 000000O   1               G    300.00   5000.00 1000.00      1
 2.56942078E+00-8.59741137E-05 4.19484589E-08-1.00177799E-11 1.22833691E-15    2
 2.92175791E+04 4.78433864E+00 3.16826710E+00-3.27931884E-03 6.64306396E-06    3
-6.12806624E-09 2.11265971E-12 2.91222592E+04 2.05193346E+00                   4
!!    [CH]=C
!!    InChI=1S/C2H3/c1-2/h1H,2H2
C2H3                    C   2H   3          G   100.000  5000.000  956.69      1
 4.81087656E+00 6.59337838E-03-2.20129495E-06 4.04587872E-10-2.98091068E-14    2
 3.37427523E+04-1.85774644E+00 3.83146115E+00-7.47448486E-04 2.72388708E-05    3
-3.26055590E-08 1.18614714E-11 3.44534845E+04 5.55913311E+00                   4
!!    C[CH]C=O
!!    InChI=1S/C3H5O/c1-2-3-4/h2-3H,1H3
CH3CHCHO          000000C   3O   1H   5     G    300.00   5000.00 1000.00      1
 3.71333831E+00 2.33955799E-02-1.07842958E-05 1.82368810E-09 0.00000000E+00    2
-4.55057438E+03 7.42946144E+00 1.54196914E+00 3.03297391E-02-1.88922690E-05    3
 5.92263358E-09-7.53762316E-13-4.01761098E+03 1.83707011E+01                   4
!!    [CH2]C#C
!!    InChI=1S/C3H3/c1-3-2/h1H,2H2
C3H3                    C   3H   3              200.000 6000.000 1000.000      1  !\COMMENT:  T 7/11  (from C3 mech)
+7.14221719E+00+7.61902211E-03-2.67460030E-06+4.24914904E-10-2.51475443E-14    2
+3.95710114E+04-1.25848129E+01+1.34577946E+00+3.27862233E-02-4.75146967E-05    3
+3.77892551E-08-1.19201548E-11+4.07684638E+04+1.52273792E+01                   4
!!    [CH]1C=CC=C1
!!    InChI=1S/C5H5/c1-2-4-5-3-1/h1-5H
C5H5              000000C   5H   5          G    300.00   3000.00 1000.00      1
 4.21464919E+00 2.71834728E-02-1.33173209E-05 3.08980119E-09-2.77879873E-13    2
 2.88952416E+04-3.05999781E-02-7.37844042E+00 9.72391818E-02-1.69579138E-04    3
 1.51818667E-07-5.12075479E-11 3.05514662E+04 5.12829539E+01                   4
!!    C=CC=O
!!    InChI=1S/C3H4O/c1-2-3-4/h2-3H,1H2
C2H3CHO                 C   3H   4O   1     G   298.000 3000.000 1000.000      1  !\COMMENT:
+4.27745325E+00+2.08995067E-02-1.10621906E-05+2.80392911E-09-2.76871274E-13    2
-1.01465486E+04+2.26814496E+00+1.30858881E+00+2.90665687E-02-1.85267312E-05    3
+5.10575873E-09-3.12357850E-13-9.34139504E+03+1.75831373E+01                   4
!!    CC=C=O
!!    InChI=1S/C3H4O/c1-2-3-4/h2H,1H3
CH3CHCO           000000C   3O   1H   4     G    300.00   5000.00 1000.00      1
 6.45951145E+00 1.56117000E-02-6.55127220E-06 1.02541702E-09 0.00000000E+00    2
-1.27042477E+04-7.71512800E+00 1.48380119E+00 3.22203013E-02-2.70250033E-05    3
 1.20499164E-08-2.18365931E-12-1.15276540E+04 1.71552068E+01                   4
!!    CCO
!!    InChI=1S/C2H6O/c1-2-3/h3H,2H2,1H3
C2H5OH            000000C   2O   1H   6     G    300.00   5000.00 1000.00      1
 6.56243650E+00 1.52042220E-02-5.38967950E-06 8.62250110E-10-5.12897870E-14    2
-3.15256210E+04-9.47302020E+00 4.85869570E+00-3.74017260E-03 6.95553780E-05    3
-8.86547960E-08 3.51688350E-11-2.99961320E+04 4.80185450E+00                   4
!!    C[CH]O
!!    InChI=1S/C2H5O/c1-2-3/h2-3H,1H3
CH3CHOH           000000C   2O   1H   5     G    300.00   5000.00 1000.00      1
 6.76654240E+00 1.16344360E-02-3.77906510E-06 5.38288750E-10-2.73153450E-14    2
-5.60929690E+03-9.39804420E+00 2.48133280E+00 1.67900360E-02 3.77554990E-06    3
-1.39234970E-08 6.00951930E-12-4.01200540E+03 1.45816220E+01                   4
!!    [CH]=O
!!    InChI=1S/CHO/c1-2/h1H
HCO               000000C   1O   1H   1     G    300.00   5000.00 1000.00      1
 2.77217438E+00 4.95695526E-03-2.48445613E-06 5.89161778E-10-5.33508711E-14    2
 4.01191815E+03 9.79834492E+00 4.22118584E+00-3.24392532E-03 1.37799446E-05    3
-1.33144093E-08 4.33768865E-12 3.83956496E+03 3.39437243E+00                   4
!!    CC=O
!!    InChI=1S/C2H4O/c1-2-3/h2H,1H3
CH3CHO            000000C   2O   1H   4     G    300.00   5000.00 1000.00      1
 2.68543112E+00 1.76802373E-02-8.65402739E-06 2.03680589E-09-1.87630935E-13    2
-2.21653701E+04 1.11635653E+01 1.40653856E+00 2.16984438E-02-1.47573265E-05    3
 7.30435478E-09-2.09119467E-12-2.17973223E+04 1.77513265E+01                   4
!!    [O]O
!!    InChI=1S/HO2/c1-2/h1H
HO2               000000O   2H   1          G    300.00   5000.00 1000.00      1
 4.17228741E+00 1.88117627E-03-3.46277286E-07 1.94657549E-11 1.76256905E-16    2
 3.10206839E+01 2.95767672E+00 4.30179807E+00-4.74912097E-03 2.11582905E-05    3
-2.42763914E-08 9.29225225E-12 2.64018485E+02 3.71666220E+00                   4
!!    [O]C1=CC=CC=C1, phenoxy
!!    InChI=1S/C6H5O/c7-6-4-2-1-3-5-6/h1-5H  C6H5O_2
A1O                     H   5C   6O   1     G   298.150  2000.000 1000.00      1
 4.91310577E+00 3.82697431E-02-2.30456960E-05 6.90570351E-09-8.31506998E-13    2
 3.70238235E+03-2.20607182E+00-4.68515694E+00 7.07969018E-02-6.30375959E-05    3
 2.77010780E-08-4.56387758E-12 5.91532949E+03 4.55664705E+01                   4
!!    OC1=CC=CC=C1, phenol
!!    InChI=1S/C6H6O/c7-6-4-2-1-3-5-6/h1-5,7H  C6H6O_3
A1OH                    H   6C   6O   1     G   298.150  2000.000 1000.00      1
 5.98175304E+00 3.82279981E-02-2.21176162E-05 6.39877372E-09-7.44634423E-13    2
-1.47607480E+04-8.17803532E+00-5.47415498E+00 7.95011500E-02-7.72016239E-05    3
 3.85709653E-08-7.65006229E-12-1.22420424E+04 4.82277188E+01                   4
!!    C=C(C)C
!!    InChI=1S/C4H8/c1-4(2)3/h1H2,2-3H3
IXC4H8            000000C   4H   8          G    300.00   5000.00 1000.00      1
 2.86958571E+00 3.29649207E-02-1.46431210E-05 2.41629691E-09 0.00000000E+00    2
-4.22675236E+03 9.39239621E+00 9.38433173E-01 3.90547287E-02-2.16437148E-05    3
 5.87267077E-09-6.14435479E-13-3.74817891E+03 1.91442985E+01                   4
!!    O=CC(=O)CO
!!    InChI=1S/C3H4O3/c4-1-3(6)2-5/h1,5H,2H2
C3H4O3            000000O   3H   4C   3     G    300.00   4000.00 1388.00      1
 1.37530675E+01 1.08054207E-02-3.64230159E-06 5.60730953E-10-3.23659923E-14    2
-5.77839662E+04-4.01019465E+01 2.08981535E+00 3.83715226E-02-2.82590499E-05    3
 1.04299134E-08-1.53140407E-12-5.38199819E+04 2.23338530E+01                   4
!!    [CH2]C
!!    InChI=1S/C2H5/c1-2/h1H2,2H3
C2H5              000000C   2H   5          G    300.00   5000.00 1000.00      1
 1.95465642E+00 1.73972722E-02-7.98206668E-06 1.75217689E-09-1.49641576E-13    2
 1.28575200E+04 1.34624343E+01 4.30646568E+00-4.18658892E-03 4.97142807E-05    3
-5.99126606E-08 2.30509004E-11 1.28416265E+04 4.70720924E+00                   4
!!    [CH3]
!!    InChI=1S/CH3/h1H3
CH3               000000C   1H   3          G    300.00   5000.00 1000.00      1
 2.97812060E+00 5.79785200E-03-1.97558000E-06 3.07297900E-10-1.79174160E-14    2
 1.65095130E+04 4.72247990E+00 3.65717970E+00 2.12659790E-03 5.45838830E-06    3
-6.61810030E-09 2.46570740E-12 1.64227160E+04 1.67353540E+00                   4
!!    CC(=O)O
!!    InChI=1S/C2H4O2/c1-2(3)4/h1H3,(H,3,4)
CH3COOH           000000O   2H   4C   2     G    300.00   4000.00 1000.00      1
 6.91666936E+00 1.28920800E-02-4.20990320E-06 4.58049540E-10 0.00000000E+00    2
-5.53508487E+04-1.02392103E+01 8.46928500E-01 2.92145000E-02-1.86455200E-05    3
 4.64098720E-09 0.00000000E+00-5.36761800E+04 2.11901500E+01                   4
!!    [H]
!!    InChI=1S/H
H                       H   1               G   100.000  5000.000 3459.60      1
 2.49999999E+00 9.20455546E-12-3.58608293E-15 6.15198922E-19-3.92041801E-23    2
 2.54742178E+04-4.44972842E-01 2.50000000E+00 9.24384602E-15-1.36779837E-17    3
 6.66184769E-21-1.00106912E-24 2.54742178E+04-4.44972896E-01                   4
!!    Cc1ccccc1, toluene
!!    InChI=1S/C7H8/c1-7-5-3-2-4-6-7/h2-6H,1H3  C7H8_1
A1CH3                   C   7H   8          G   100.000  5000.000 1083.67      1
 1.20236208E+01 2.94112125E-02-1.18024047E-05 2.19295947E-09-1.57230251E-13    2
-3.90915907E+02-4.17166399E+01 1.97212248E+00 3.19605454E-02 3.24955129E-05    3
-5.44813554E-08 1.97050705E-11 3.81640627E+03 1.69445607E+01                   4
!!    C=O
!!    InChI=1S/CH2O/c1-2/h1H2
CH2O              000000C   1O   1H   2     G    300.00   5000.00 1000.00      1
 1.76069008E+00 9.20000082E-03-4.42258813E-06 1.00641212E-09-8.83855640E-14    2
-1.39958323E+04 1.36563230E+01 4.79372315E+00-9.90833369E-03 3.73220008E-05    3
-3.79285261E-08 1.31772652E-11-1.43089567E+04 6.02812900E-01                   4
!!    C1=COC=C1
!!    InChI=1S/C4H4O/c1-2-4-5-3-1/h1-4H
CC4H4O                  C   4H   4O   1     G   100.000  5000.000  826.92      1
 5.72417062E+00 2.07489889E-02-9.21393108E-06 1.85135829E-09-1.37927702E-13    2
-7.25190605E+03-7.59062233E+00 1.05838883E+00 1.13229749E-02 6.59226383E-05    3
-1.05514436E-07 4.64675092E-11-5.38633448E+03 2.06467994E+01                   4
!!    [C]=O
!!    InChI=1S/CO/c1-2
CO                000000C   1O   1          G    300.00   5000.00 1000.00      1
 2.71518561E+00 2.06252743E-03-9.98825771E-07 2.30053008E-10-2.03647716E-14    2
-1.41518724E+04 7.81868772E+00 3.57953347E+00-6.10353680E-04 1.01681433E-06    3
 9.07005884E-10-9.04424499E-13-1.43440860E+04 3.50840928E+00                   4
!!    OC1C2OC3COC1C3O2
!!    InChI=1S/C6H8O4/c7-3-5-4-2(1-8-5)9-6(3)10-4/h2-7H,1H2
C6H8O4            000000O   4H   8C   6     G    300.00   4000.00 1398.00      1
 2.45389912E+01 2.22706283E-02-7.73806446E-06 1.21423501E-09-7.09771757E-14    2
-8.16610603E+04-1.00550137E+02-4.60104207E+00 1.00736116E-01-9.05484350E-05    3
 4.13812870E-08-7.52102026E-12-7.25801173E+04 5.22649333E+01                   4
!!    O=O
!!    InChI=1S/O2/c1-2
O2                000000O   2               G    300.00   5000.00 1000.00      1
 3.28253784E+00 1.48308754E-03-7.57966669E-07 2.09470555E-10-2.16717794E-14    2
-1.08845772E+03 5.45323129E+00 3.78245636E+00-2.99673416E-03 9.84730201E-06    3
-9.68129509E-09 3.24372837E-12-1.06394356E+03 3.65767573E+00                   4
!!    O
!!    InChI=1S/H2O/h1H2
H2O               000000O   1H   2          G    300.00   5000.00 1000.00      1
 3.03399249E+00 2.17691804E-03-1.64072518E-07-9.70419870E-11 1.68200992E-14    2
-3.00042971E+04 4.96677010E+00 4.19864056E+00-2.03643410E-03 6.52040211E-06    3
-5.48797062E-09 1.77197817E-12-3.02937267E+04-8.49032208E-01                   4
!!    O=CC1=CC=C(CO)O1
!!    InChI=1S/C6H6O3/c7-3-5-1-2-6(4-8)9-5/h1-3,8H,4H2
C6H6O3            000000O   3H   6C   6     G    300.00   4000.00 1382.00      1
 1.93892545E+01 1.86134462E-02-6.31148097E-06 9.75462374E-10-5.64561412E-14    2
-4.92678935E+04-7.16786498E+01 5.98814621E-01 6.18493802E-02-4.38009436E-05    3
 1.55531333E-08-2.20506530E-12-4.27313109E+04 2.93828012E+01                   4
!!    [Ar]
!!    InChI=1S/Ar
AR                000000AR  1               G    300.00   5000.00 1000.00      1
 2.50000000E+00 0.00000000E+00 0.00000000E+00 0.00000000E+00 0.00000000E+00    2
-7.45375000E+02 4.36600000E+00 2.50000000E+00 0.00000000E+00 0.00000000E+00    3
 0.00000000E+00 0.00000000E+00-7.45375000E+02 4.36600000E+00                   4
!!       [H][H]
!!       InChI=1S/H2/h1H
H2                      H   2               G   100.000  5000.000 1522.54      1
 3.18685793E+00 1.91831968E-04 2.13778007E-07-6.16100081E-11 4.90274624E-15    2
-8.68610051E+02-2.39505918E+00 3.48836221E+00 9.89580039E-05-3.83604271E-07    3
 5.01598766E-10-1.37104049E-13-1.04146650E+03-4.24254296E+00                   4
!!    O=C=O
!!    InChI=1S/CO2/c2-1-3
CO2               000000C   1O   2          G    300.00   5000.00 1000.00      1
 3.85746029E+00 4.41437026E-03-2.21481404E-06 5.23490188E-10-4.72084164E-14    2
-4.87591660E+04 2.27163806E+00 2.35677352E+00 8.98459677E-03-7.12356269E-06    3
 2.45919022E-09-1.43699548E-13-4.83719697E+04 9.90105222E+00                   4
!!       C=C
!!       InChI=1S/C2H4/c1-2/h1-2H2
C2H4                    C   2H   4          G   100.000  5000.000  979.36      1
 3.55660610E+00 1.10627464E-02-4.17019079E-06 7.85586770E-10-5.70060829E-14    2
 4.32046489E+03 2.17719479E+00 3.97471606E+00-4.75844285E-03 4.16783770E-05    3
-4.51392516E-08 1.54224761E-11 4.91540746E+03 3.62430844E+00                   4
!!    C=C=C(C)C
!!    InChI=1S/C5H8/c1-4-5(2)3/h1H2,2-3H3
C5H8              000000H   8C   5          G    300.00   4000.00 1000.00      1
 7.97205310E+00 2.68614160E-02-9.56546320E-06 1.13079120E-09 0.00000000E+00    2
 5.10466811E+03-1.85090870E+01 1.76636500E+00 4.32678800E-02-2.37613290E-05    3
 5.12588110E-09 0.00000000E+00 6.84030700E+03 1.37180600E+01                   4
!!    OC1C2COC(O2)C(O)C1O
!!    InChI=1S/C6H10O5/c7-3-2-1-10-6(11-2)5(9)4(3)8/h2-9H,1H2
C6H10O5           000000O   5H  10C   6     G    300.00   4000.00 1000.00      1
 2.79850422E+01 2.64166682E-02-9.13640739E-06 1.42923991E-09-8.33656585E-14    2
-1.14313686E+05-1.17754445E+02-7.81241700E+00 1.25424511E-01-1.16271866E-04    3
 5.44734561E-08-1.00746170E-11-1.03428291E+05 6.90300863E+01                   4
!!    N#N
!!    InChI=1S/N2/c1-2
N2                000000N   2               G    300.00   5000.00 1000.00      1
 2.92664000E+00 1.48797680E-03-5.68476000E-07 1.00970380E-10-6.75335100E-15    2
-9.22797700E+02 5.98052800E+00 3.29867700E+00 1.40824040E-03-3.96322200E-06    3
 5.64151500E-09-2.44485400E-12-1.02089990E+03 3.95037200E+00                   4
!!    O=CC1=CC=CO1
!!    InChI=1S/C5H4O2/c6-4-5-2-1-3-7-5/h1-4H
C5H4O2            000000O   2H   4C   5     G    300.00   4000.00 1000.00      1
 1.59553578E+01 1.22096134E-02-4.19491662E-06 6.54219009E-10-3.81060338E-14    2
-2.55664634E+04-5.96830465E+01-1.86260023E+00 5.70946426E-02-4.76338594E-05    3
 1.97949337E-08-3.26585828E-12-1.97873020E+04 3.47179869E+01                   4
!!    C
!!    InChI=1S/CH4/h1H4
CH4               000000C   1H   4          G    300.00   5000.00 1000.00      1
 1.65326226E+00 1.00263099E-02-3.31661238E-06 5.36483138E-10-3.14696758E-14    2
-1.00095936E+04 9.90506283E+00 5.14911468E+00-1.36622009E-02 4.91453921E-05    3
-4.84246767E-08 1.66603441E-11-1.02465983E+04-4.63848842E+00                   4
!!    [OH]
!!    InChI=1S/HO/h1H
OH                000000O   1H   1          G    300.00   5000.00 1000.00      1
 2.86472886E+00 1.05650448E-03-2.59082758E-07 3.05218674E-11-1.33195876E-15    2
 3.71885774E+03 5.70164073E+00 4.12530561E+00-3.22544939E-03 6.52764691E-06    3
-5.79853643E-09 2.06237379E-12 3.38153812E+03-6.90432960E-01                   4

!!    InChI=1S/C7H8O/c1-8-7-5-3-2-4-6-7/h2-6H,1H3
C6H5OCH3   3/02/16 THERMC   7H   8O   1    0G   300.000  5000.000 1393.000    21
 2.03938728E+01 2.09088165E-02-7.22522263E-06 1.12997840E-09-6.59097524E-14    2
-1.85558154E+04-8.62920505E+01-5.40888697E+00 8.73332441E-02-7.39639658E-05    3
 3.20208039E-08-5.56946955E-12-1.02318239E+04 5.00696056E+01                   4
!!    c1ccccc1
!!    InChI=1S/C6H6/c1-2-4-6-5-3-1/h1-6H C6H6_1
A1                      C   6H   6          G   200.000  3500.000  950.77      1
 4.06749000E+00 3.53350000E-02-1.82495000E-05 4.47453000E-09-4.21489000E-13    2
 6.76912000E+03-2.06220000E+00-2.81519000E+00 4.68382000E-02-8.86217000E-06    3
-2.14154000E-08 1.14630000E-11 8.86673000E+03 3.49438000E+01                   4
!!    CCC=O
!!    InChI=1S/C3H6O/c1-2-3-4/h3H,2H2,1H3
C2H5CHO           000000C   3O   1H   6     G    300.00   5000.00 1000.00      1
 3.10401322E+00 2.66733882E-02-1.20750385E-05 2.02236556E-09 0.00000000E+00    2
-2.44647131E+04 1.13387411E+01 2.16308444E+00 2.95501264E-02-1.52446252E-05    3
 3.49503947E-09-2.38896627E-13-2.42260137E+04 1.61153348E+01                   4
!!    COC1=C(O)C=CC(C=O)=C1
!!    InChI=1S/C8H8O3/c1-11-8-4-6(5-9)2-3-7(8)10/h2-5,10H,1H3
OC8H7OOH          000000C   8O   3H   8     G    300.00   4000.00 1000.00      1
 5.90515216E+00 6.70729450E-02-4.03281386E-05 1.14965704E-08-1.25640981E-12    2
-2.17516302E+04 5.77311543E-01-1.93576547E+00 9.24900716E-02-6.09729593E-05    3
 7.89850275E-09 5.41026965E-12-2.01714879E+04 3.91784215E+01                   4
!!    c1[c]cccc1
!!    InChI=1S/C6H5/c1-2-4-6-5-3-1/h1-5H C6H5_R_1
A1-                     H   5C   6          G   298.150  2000.000 1000.00      1
 3.64534182E+00 3.47211258E-02-1.99427625E-05 5.63096428E-09-6.30417456E-13    2
 3.77324336E+04 3.27494460E+00-5.05512557E+00 6.28508508E-02-5.21291329E-05    3
 2.04163999E-08-2.65874021E-12 3.98061344E+04 4.69177066E+01                   4

! CRECK-NOx
NO                000000N   1O   1          G    200.00   3500.00  800.00      1
 2.84621514E+00 2.06354046E-03-1.06904715E-06 2.65706521E-10-2.54948673E-14    2
 1.00671113E+04 8.61842850E+00 4.25026596E+00-4.95671364E-03 1.20939293E-05    3
-1.07034405E-08 3.40236358E-12 9.84246312E+03 2.15799980E+00                   4
N2O               000000N   2O   1          G    200.00   3500.00 1420.00      1
 4.85543722E+00 2.58052440E-03-9.33594196E-07 1.54088463E-10-9.24862860E-15    2
 8.05595827E+03-2.39060855E+00 2.51620681E+00 9.16990584E-03-7.89420840E-06    3
 3.42198245E-09-5.84582078E-13 8.72029970E+03 9.71509320E+00                   4
NO2               000000N   1O   2          G    200.00   3500.00 1800.00      1
 4.19813794E+00 3.78881378E-03-2.08226003E-06 5.53837970E-10-5.45690377E-14    2
 2.49824368E+03 3.49647574E+00 2.86592221E+00 6.74929318E-03-4.54932620E-06    3
 1.46756618E-09-1.81475734E-13 2.97784134E+03 1.07067052E+01                   4
HNO               000000N   1H   1O   1     G    200.00   3500.00  700.00      1
 2.88552845E+00 3.71507602E-03-9.89194577E-07 1.60505677E-10-1.61198693E-14    2
 1.18465422E+04 9.10108586E+00 4.47186928E+00-5.34972870E-03 1.84353870E-05    3
-1.83390958E-08 6.59088065E-12 1.16244545E+04 2.01371639E+00                   4
HNO2              000000N   1H   1O   2     G    200.00   3500.00  700.00      1
 1.72007297E+00 1.13464166E-02-6.67663344E-06 1.82835451E-09-1.88889111E-13    2
-6.26025905E+03 1.58192354E+01 3.09881792E+00 3.46787403E-03 1.02059578E-05    3
-1.42503038E-08 5.55348886E-12-6.45328334E+03 9.65935176E+00                   4
HONO              000000N   1H   1O   2     G    200.00   3500.00 1450.00      1
 5.99816567E+00 3.29505604E-03-1.07588927E-06 1.49768833E-10-6.76019596E-15    2
-1.16909495E+04-5.24156198E+00 2.71684795E+00 1.23469670E-02-1.04399351E-05    3
 4.45507726E-09-7.49054752E-13-1.07393674E+04 1.18081173E+01                   4
NH3               000000N   1H   3          G    200.00   3500.00  700.00      1
 2.51781806E+00 5.95384021E-03-2.00551774E-06 3.21049857E-10-1.88806103E-14    2
-6.46278677E+03 7.18902506E+00 4.05091142E+00-2.80669328E-03 1.67670540E-05    3
-1.75575899E-08 6.36634788E-12-6.67741985E+03 3.39551794E-01                   4
N                 000000N   1               G    200.00   3500.00 1800.00      1
 2.42215558E+00 1.52655402E-04-9.87414150E-08 2.32518158E-11-1.22034408E-15    2
 5.61344054E+04 4.62162566E+00 2.50554288E+00-3.26497078E-05 5.56795096E-08    3
-3.39411193E-11 6.72311912E-15 5.61043859E+04 4.17031620E+00                   4
NH                000000N   1H   1          G    200.00   3500.00 1670.00      1
 2.48662839E+00 1.81565444E-03-7.12541166E-07 1.51936873E-10-1.23899449E-14    2
 4.24864648E+04 7.43461547E+00 3.66298286E+00-1.00196106E-03 1.81825120E-06    3
-8.58359483E-10 1.38852024E-13 4.20935624E+04 1.15612276E+00                   4
NH2               000000N   1H   2          G    200.00   3500.00 1280.00      1
 2.55273412E+00 3.54675597E-03-1.12718085E-06 1.61534507E-10-6.97197513E-15    2