THERMO
   300.000  1000.000  5000.000
!!    CCO[O]
!!    InChI=1S/C2H5O2/c1-2-4-3/h2H2,1H3
C2H5O2            000000C   2O   2H   5     G    300.00   5000.00 1000.00      1
 3.83373177E+00 2.17306531E-02-9.46240963E-06 1.53103480E-09 0.00000000E+00    2
-5.58246437E+03 9.88539944E+00 3.25121167E+00 2.36765869E-02-1.18477606E-05    3
 2.79401564E-09-2.41043601E-13-5.44533068E+03 1.27953147E+01                   4
!!    CC[C]=O
!!    InChI=1S/C3H5O/c1-2-3-4/h2H2,1H3
C2H5CO            000000C   3O   1H   5     G    300.00   5000.00 1000.00      1
 3.47466548E+00 2.32207586E-02-1.06500291E-05 1.80266137E-09 0.00000000E+00    2
-5.84231374E+03 1.08093318E+01 2.93313946E+00 2.47427911E-02-1.21222003E-05    3
 2.34701048E-09-5.26843338E-14-5.69663063E+03 1.35958355E+01                   4
!!    CCC=O
!!    InChI=1S/C3H6O/c1-2-3-4/h3H,2H2,1H3
C2H5CHO           000000C   3O   1H   6     G    300.00   5000.00 1000.00      1
 3.10401322E+00 2.66733882E-02-1.20750385E-05 2.02236556E-09 0.00000000E+00    2
-2.44647131E+04 1.13387411E+01 2.16308444E+00 2.95501264E-02-1.52446252E-05    3
 3.49503947E-09-2.38896627E-13-2.42260137E+04 1.61153348E+01                   4
!!    [CH2]CO
!!    InChI=1S/C2H5O/c1-2-3/h3H,1-2H2
PC2H4OH                 C   2H   5O   1     G   300.000 5000.000 1395.000      1  !\COMMENT:  8/12/15
+8.06750150E+00+1.06143554E-02-3.57999360E-06+5.50363760E-10-3.17051769E-14    2
-6.92747939E+03-1.53833428E+01+2.59479867E+00+2.27100669E-02-1.39473846E-05    3
+4.70095591E-09-6.90044236E-13-4.91486975E+03+1.43240718E+01                   4
!!    O[CH]C=C
!!    InChI=1S/C3H5O/c1-2-3-4/h2-4H,1H2
CH2CHCHOH               C   3H   5O   1     G   300.000 5000.000 1378.000      1  !\COMMENT:  9/25/15
+1.15297558E+01+1.14381097E-02-4.04415495E-06+6.41949269E-10-3.78242456E-14    2
-3.45486444E+03-3.65385497E+01+4.06368169E-01+3.70231405E-02-2.72202689E-05    3
+1.05783475E-08-1.73632514E-12+5.27160824E+02+2.34781848E+01                   4
!!    [CH2]CC=O
!!    InChI=1S/C3H5O/c1-2-3-4/h3H,1-2H2
CH2CH2CHO         000000C   3O   1H   5     G    300.00   5000.00 1000.00      1
-6.77607551E+00 4.53839720E-02-2.31798667E-05 4.07097539E-09 0.00000000E+00    2
 2.90620639E+03 6.64968049E+01 8.36272659E+00-3.90712606E-03 3.59751257E-05    3
-2.69209237E-08 5.98920261E-12-7.55243244E+02-9.53140102E+00                   4
!!    CC=C=O
!!    InChI=1S/C3H4O/c1-2-3-4/h2H,1H3
CH3CHCO           000000C   3O   1H   4     G    300.00   5000.00 1000.00      1
 6.45951145E+00 1.56117000E-02-6.55127220E-06 1.02541702E-09 0.00000000E+00    2
-1.27042477E+04-7.71512800E+00 1.48380119E+00 3.22203013E-02-2.70250033E-05    3
 1.20499164E-08-2.18365931E-12-1.15276540E+04 1.71552068E+01                   4
!!    [C]
!!    InChI=1S/C
C                 000000C   1               G    300.00   5000.00 1000.00      1
 2.49266888E+00 4.79889284E-05-7.24335020E-08 3.74291029E-11-4.87277893E-15    2
 8.54512953E+04 4.80150373E+00 2.55423955E+00-3.21537724E-04 7.33792245E-07    3
-7.32234889E-10 2.66521446E-13 8.54438832E+04 4.53130848E+00                   4
!!    C[CH]C=O
!!    InChI=1S/C3H5O/c1-2-3-4/h2-3H,1H3
CH3CHCHO          000000C   3O   1H   5     G    300.00   5000.00 1000.00      1
 3.71333831E+00 2.33955799E-02-1.07842958E-05 1.82368810E-09 0.00000000E+00    2
-4.55057438E+03 7.42946144E+00 1.54196914E+00 3.03297391E-02-1.88922690E-05    3
 5.92263358E-09-7.53762316E-13-4.01761098E+03 1.83707011E+01                   4
!!    CC=CO
!!    InChI=1S/C3H6O/c1-2-3-4/h2-4H,1H3
SC3H5OH                 C   3H   6O   1     G   298.000 3000.000 1000.000      1  !\COMMENT: SP_FROM GOLDSMITH
+5.15026206E+00+2.35923425E-02-1.14263883E-05+2.70815158E-09-2.54145326E-13    2
-2.06936916E+04-5.56559884E-01+2.73013612E+00+3.03161502E-02-1.65712529E-05    3
+2.50557776E-09+7.89611311E-13-2.00786225E+04+1.18162879E+01                   4
!!    CC[CH]O
!!    InChI=1S/C3H7O/c1-2-3-4/h3-4H,2H2,1H3
C3H6OH1-1               C   3H   7O   1     G   300.000 5000.000 1388.000      1  !\COMMENT:  PAWEL ADDED PROPONAL 27/06/2016   3/22/16 THERM
+1.14795375E+01+1.45881429E-02-4.88359380E-06+7.47606975E-10-4.29608360E-14    2
-1.46832088E+04-3.36825807E+01+1.13614529E+00+3.68850655E-02-2.24073579E-05    3
+6.62398992E-09-7.32206246E-13-1.09273174E+04+2.24919343E+01                   4
!!    O=CC1=CC=CC=C1, benzaldehyde
!!    InChI=1S/C7H6O/c8-6-7-4-2-1-3-5-7/h1-6H
A1CHO             000000C   7O   1H   6     G    300.00   3000.00 1000.00      1
 1.87355756E+00 5.26231551E-02-3.17644962E-05 9.06403069E-09-9.90306123E-13    2
-7.23603865E+03 1.49787009E+01-3.47171048E+00 6.92891889E-02-4.32603509E-05    3
 3.43871096E-09 4.81010261E-12-6.14558774E+03 4.14094024E+01                   4
!!    [CH]1C=CC(=C1)C1C=CCC=1
!!    InChI=1S/C10H9/c1-2-6-9(5-1)10-7-3-4-8-10/h1-3,5-8H,4H2
C5H5C5H4-1C             H   9C  10          G   290.000  2500.000 1003.72      1
 5.97950942E+00 6.63632628E-02-4.21080142E-05 1.34287396E-08-1.71263856E-12    2
 3.77046752E+04-8.56907955E+00-4.11881569E+00 8.83372000E-02-4.76437557E-05    3
-1.02904286E-09 6.40527236E-12 4.06521423E+04 4.47713956E+01                   4
!!    C1=CC2(CO2)C=C[CH]1
!!    InChI=1S/C7H7O/c1-2-4-7(5-3-1)6-8-7/h1-5H,6H2
C6H5CYCH2O 07/28/17THERMC   7H   7O   1    0G   300.000  5000.000 1402.000    01
1.91923903E+01 1.99832445E-02-6.84837707E-06 1.06493580E-09-6.18638645E-14    2
1.07135098E+04-8.01938374E+01-5.76102318E+00 8.61923944E-02-7.51548526E-05    3
3.33118351E-08-5.87864067E-12 1.85278620E+04 5.09131733E+01                   4
!!    C#[C]
!!    InChI=1S/C2H/c1-2/h1H
C2H                     C   2H   1          G   100.000  5000.000  816.49      1
 3.82807163E+00 3.61965742E-03-1.29285471E-06 2.05742718E-10-1.23512537E-14    2
 6.70814268E+04 2.94450182E+00 3.11938953E+00 1.18597671E-02-2.51910027E-05    3
 2.68712464E-08-1.03670814E-11 6.70382145E+04 5.24649778E+00                   4
!!    C#CC1=C(O1)
!!    InChI=1S/C4H2O/c1-2-4-3-5-4/h1,3H
H2C4O             120189H   2C   4O   1     G  300.0000 4000.0000 1000.00      1
 1.02688800E+01 4.89616400E-03-4.88508100E-07-2.70856600E-10 5.10701300E-14    2
 2.34690263E+04-2.81598636E+01 4.81098778E+00 1.31398556E-02 9.86873447E-07    3
-6.12112574E-09 1.64015830E-12 2.54580285E+04 2.11335541E+00                   4
!! C1[CH]C(=O)C=C1
!! InChI=1S/C5H5O/c6-5-3-1-2-4-5/h1,3-4H,2H2         P5 meta-C5H5O isomer  Cypent-3-eneone-4yl C5H5O1_2
CPND2-5R                C   5H   5O   1     G   100.000  5000.000  940.19      1
 1.43278567E+01 1.13840882E-02-2.55649147E-06 4.43971639E-10-3.69293987E-14    2
 1.53595478E+03-5.10173491E+01 2.29329537E+00 2.12455931E-02 4.76641177E-05    3
-8.19330831E-08 3.43030203E-11 5.62598924E+03 1.60168336E+01                   4
!!    [CH2]C1C=CC=C1
!!    InChI=1S/C6H7/c1-6-4-2-3-5-6/h2-6H,1H2
C5H5CH2         17   LITC   6H   7    0     G   300.000  5000.000 1402.000     1
 1.51289858E+01 1.78065530E-02-6.07089735E-06 9.40569603E-10-5.44933404E-14    2
 3.14226673E+04-5.67179820E+01-4.48851315E+00 7.03646001E-02-6.11463140E-05    3
 2.74349397E-08-4.92681592E-12 3.75516391E+04 4.62341479E+01                   4
!!    C=[C]C#C
!!    InChI=1S/C4H3/c1-3-4-2/h1H,2H2
I-C4H3      8/8/12   GMGH   3C   4          G  100.0000 5000.0000  841.11      1
 6.74047851E+00 1.26892250E-02-5.43045266E-06 9.96208069E-10-6.78094556E-14    2
 5.71523082E+04-6.79882861E+00 2.59158130E+00 3.24210917E-02-4.06217212E-05    3
 2.88907437E-08-8.35933805E-12 5.78501985E+04 1.24990362E+01                   4
!!    [CH2]
!!    InChI=1S/CH2/h1H2_SINGLET
S-CH2             000000C   1H   2          G    300.00   5000.00 1000.00      1
 2.29203842E+00 4.65588637E-03-2.01191947E-06 4.17906000E-10-3.39716365E-14    2
 5.09259997E+04 8.62650169E+00 4.19860411E+00-2.36661419E-03 8.23296220E-06    3
-6.68815981E-09 1.94314737E-12 5.04968163E+04-7.69118967E-01                   4
!!    C1=CCC(=C1)C1C=CCC=1
!!    InChI=1S/C10H10/c1-2-6-9(5-1)10-7-3-4-8-10/h1-3,5,7-8H,4,6H2
C5H5C5H5-1D             H  10C  10          G   290.000  2500.000 1001.84      1
 6.09811066E+00 6.84790443E-02-4.25133381E-05 1.32534659E-08-1.65623082E-12    2
 2.54966750E+04-1.02378021E+01-4.42480421E+00 9.30374653E-02-5.31476339E-05    3
 2.93827675E-09 5.25774795E-12 2.84811462E+04 4.49205473E+01                   4
!!    C1=CC(C)=CC1
!!    InChI=1S/C6H8/c1-6-4-2-3-5-6/h2,4-5H,3H2,1H3
C5H5CH3-2  8/10/17   LITC   6H   8    0    0G  300.0000 5000.0000 1397.00      1
 1.49358231E+01 2.07204882E-02-7.12075715E-06 1.10910625E-09-6.44955257E-14    2
 4.21973626E+03-5.80592282E+01-5.10678180E+00 7.16988475E-02-5.92912396E-05    3
 2.68400844E-08-5.18704752E-12 1.08372235E+04 4.82757623E+01                   4
!!    C=CC=[CH]
!!    InChI=1S/C4H5/c1-3-4-2/h1,3-4H,2H2
N-C4H5                  C   4H   5          G   200.000  3500.000 1070.92      1
 8.18469000E+00 1.77780000E-02-8.90671000E-06 2.21354000E-09-2.17483000E-13    2
 3.99461000E+04-1.87467000E+01 1.50021000E+00 3.05927000E-02-9.83406000E-06    3
-7.80542000E-09 4.59501000E-12 4.20747000E+04 1.72136000E+01                   4
!!       C=C1[CH]CC=C1
!!       InChI=1S/C6H7/c1-6-4-2-3-5-6/h2,4-5H,1,3H2
C5H5CH2-2  8/10/17   LITC   6H   7    0    0G  300.0000 5000.0000 1398.00      1
 1.61072691E+01 1.73692888E-02-6.00742320E-06 9.39783915E-10-5.48175033E-14    2
 2.18936092E+04-6.42898814E+01-5.23109521E+00 7.55274387E-02-6.97561570E-05    3
 3.41064092E-08-6.86051432E-12 2.85484814E+04 4.75422184E+01                   4
!!    CC[O]
!!    InChI=1S/C2H5O/c1-2-3/h2H2,1H3
C2H5O             000000C   2O   1H   5     G    300.00   5000.00 1000.00      1
 2.46262349E+00 2.09503959E-02-9.39291750E-06 1.56440627E-09 0.00000000E+00    2
-3.83932658E+03 1.28738847E+01 4.94420708E-01 2.71774434E-02-1.65909010E-05    3
 5.15204200E-09-6.48496915E-13-3.35252925E+03 2.28079378E+01                   4
!!    c1ccc2ccccc2c1
!!    InChI=1S/C10H8/c1-2-6-10-8-4-3-7-9(10)5-1/h1-8H C10H8_2
A2                      H   8C  10          G   298.150  2000.000 1000.00      1
 5.45348422E+00 5.96726751E-02-3.44690498E-05 9.74790654E-09-1.08905184E-12    2
 1.32418233E+04-9.29212158E+00-8.94781921E+00 1.05588029E-01-8.58072920E-05    3
 3.22835419E-08-3.80049580E-12 1.67065770E+04 6.31083076E+01                   4
!!    C1=CC(=O)C=CC1=O
!!    InChI=1S/C6H4O2/c7-5-1-2-6(8)4-3-5/h1-4H
OC6H4O            000000C   6O   2H   4     G    300.00   3000.00 1000.00      1
 5.70290193E+00 3.85045001E-02-2.28744718E-05 6.43291874E-09-6.94257842E-13    2
-1.40768967E+04-3.71424836E+00-2.04371804E+00 6.60964467E-02-5.67977439E-05    3
 2.24901031E-08-2.67349671E-12-1.24369410E+04 3.43096110E+01                   4
!!    [O]C1=CC=CC(O)=C1
!!    InChI=1S/C6H5O2/c7-5-2-1-3-6(8)4-5/h1-4,7H
OC6H4OH                 C   6H   5O   2     G   200.000  3200.000 1006.26      1
 9.86390000E+00 3.27109000E-02-1.77303000E-05 4.67767000E-09-4.83259000E-13    2
-2.05204000E+04-2.63912000E+01-3.13446000E-01 5.61957000E-02-2.74397000E-05    3
-5.65046000E-09 6.24684000E-12-1.76130000E+04 2.70415000E+01                   4
!!   OC1=CC=CC1
!!   InChI=1S/C5H6O/c6-5-3-1-2-4-5/h1-3,6H,4H2        W4
C5H5OH-1                C   5H   6O   1     G   100.000  5000.000  929.82      1
 1.95179520E+01 5.14518530E-03 1.15842624E-06-2.58537725E-10 8.52075007E-15    2
-1.68467754E+04-8.07217219E+01 1.99180263E+00 2.09328396E-02 7.18502328E-05    3
-1.19889064E-07 5.07107956E-11-1.10107767E+04 1.64127861E+01                   4
!!    [C](=O)O
!!    InChI=1S/CHO2/c2-1-3/h(H,2,3)
HOCO                    C   1H   1O   2     G   200.000 6000.000 1000.000      1  !\COMMENT:  T05/06
+5.39206152E+00+4.11221455E-03-1.48194900E-06+2.39875460E-10-1.43903104E-14    2
-2.38606717E+04-2.23529091E+00+2.92207919E+00+7.62453859E-03+3.29884437E-06    3
-1.07135205E-08+5.11587057E-12-2.30281524E+04+1.12925886E+01                   4
!!    c1[c]cccc1
!!    InChI=1S/C6H5/c1-2-4-6-5-3-1/h1-5H C6H5_R_1
A1-                     H   5C   6          G   298.150  2000.000 1000.00      1
 3.64534182E+00 3.47211258E-02-1.99427625E-05 5.63096428E-09-6.30417456E-13    2
 3.77324336E+04 3.27494460E+00-5.05512557E+00 6.28508508E-02-5.21291329E-05    3
 2.04163999E-08-2.65874021E-12 3.98061344E+04 4.69177066E+01                   4
!!    CCC=C
!!    InChI=1S/C4H8/c1-3-4-2/h3H,1,4H2,2H3
C4H8X1                  C   4H   8          G   300.000 5000.000 1388.000      1
+1.10189295E+01+1.82714177E-02-6.21801907E-06+9.62038611E-10-5.56791341E-14    2
-5.80998818E+03-3.47942287E+01+1.62599556E-01+4.01052746E-02-2.18038592E-05    3
+5.47070727E-09-4.54073315E-13-1.65402601E+03+2.48169258E+01                   4
!!       C=C1[CH]C=CC1
!!       InChI=1S/C6H7/c1-6-4-2-3-5-6/h2-4H,1,5H2
C5H5CH2-1  8/10/17   LITC   6H   7    0    0G  300.0000 5000.0000 1397.00      1
 1.60009500E+01 1.74775366E-02-6.04888686E-06 9.46697639E-10-5.52383113E-14    2
 1.89331639E+04-6.37501499E+01-5.51494836E+00 7.62865173E-02-7.08169924E-05    3
 3.48372736E-08-7.04893103E-12 2.56380901E+04 4.89742458E+01                   4
!!    C1=CC=CC=C1O[CH2]
!!    InChI=1S/C7H7O/c1-8-7-5-3-2-4-6-7/h2-6H,1H2
C6H5OCH2   3/08/16 THERMC   7H   7O   1    0G   300.000  5000.000 1404.000    21
1.95297801E+01 1.87267777E-02-6.38766571E-06 9.90128481E-10-5.73893448E-14    2
6.02346737E+03-7.94661634E+01-4.09410014E+00 8.27000306E-02-7.37585370E-05    3
3.33910070E-08-5.99308538E-12 1.32919235E+04 4.41961425E+01                   4
!!    CO[O]
!!    InChI=1S/CH3O2/c1-3-2/h1H3
CH3O2             000000C   1O   2H   3     G    300.00   5000.00 1000.00      1
 5.92505819E+00 9.00194542E-03-3.24254309E-06 5.24362718E-10-3.14263003E-14    2
-1.53258958E+03-4.93669747E+00 4.76597792E+00-3.51077148E-03 4.54394152E-05    3
-5.66763729E-08 2.21591482E-11-4.82401289E+02 4.76095141E+00                   4
!!    [CH]1C=CC=C1C1=CC=CC1
!!    InChI=1S/C10H9/c1-2-6-9(5-1)10-7-3-4-8-10/h1-7H,8H2
C5H5C5H4-1B             H   9C  10          G   290.000  2500.000 1001.71      1
 5.52021526E+00 6.74082454E-02-4.30501375E-05 1.38038403E-08-1.76741507E-12    2
 3.57575862E+04-6.39938534E+00-4.02571237E+00 8.68903664E-02-4.43162753E-05    3
-3.92669882E-09 7.29306834E-12 3.86050373E+04 4.43375534E+01                   4
!!    CC(=O)C[O]
!!    InChI=1S/C3H5O2/c1-3(5)2-4/h2H2,1H3
CH3COCH2O         000000C   3O   2H   5     G    300.00   5000.00 1000.00      1
 3.50032506E+00 2.75257713E-02-1.28950710E-05 2.21063245E-09 0.00000000E+00    2
-1.91236482E+04 1.28924392E+01 3.72927689E+00 2.63943697E-02-1.09796486E-05    3
 8.58185303E-10 3.39474590E-13-1.91551565E+04 1.18505335E+01                   4
!!    [CH]1C=CC=CC1
!!    InChI=1S/C6H7/c1-2-4-6-5-3-1/h1-5H,6H2
C6H7-3                  C   6H   7          G   100.000  5000.000  956.68      1
 1.33871941E+01 1.87096234E-02-5.90232457E-06 1.12951565E-09-8.83609249E-14    2
 1.92107265E+04-4.82466211E+01 2.48065299E+00 1.32573249E-02 8.26942880E-05    3
-1.16390577E-07 4.51986511E-11 2.36338838E+04 1.60987501E+01                   4
!!    [C]=C
!!    InChI=1S/C2H2/c1-2/h1H2
H2C2              000000C   2H   2          G    300.00   5000.00 1000.00      1
 4.27803400E+00 4.75628040E-03-1.63010090E-06 2.54628060E-10-1.48863790E-14    2
 4.83166880E+04 6.40237010E-01 3.28154830E+00 6.97647910E-03-2.38552440E-06    3
-1.21044320E-09 9.81895450E-13 4.86217940E+04 5.92039100E+00                   4
!!    [CH]1CO1
!!    InChI=1S/C2H3O/c1-2-3-1/h1H,2H2
C2H3O1-2                C   2H   3O   1     G   200.000 6000.000 1000.000      1  !\COMMENT:  A 1/05
+5.60158035E+00+9.17613962E-03-3.28028902E-06+5.27903888E-10-3.15362241E-14    2
+1.71446252E+04-5.47228512E+00+3.58349017E+00-6.02275805E-03+6.32426867E-05    3
-8.18540707E-08+3.30444505E-11+1.85681353E+04+9.59725926E+00                   4
!!    [O]C=CC=C
!!    InChI=1S/C4H5O/c1-2-3-4-5/h2-4H,1H2
CH2CHCHCHO              C   4H   5O   1     G   300.000 5000.000 1400.000      1  !\COMMENT:
+1.32551859E+01+1.19066619E-02-4.06547591E-06+6.30312610E-10-3.65301442E-14    2
+4.28822305E+03-4.47690775E+01-4.93209912E-01+5.26550104E-02-5.15159642E-05    3
+2.57409661E-08-5.03442115E-12+8.26367547E+03+2.61133171E+01                   4
!!    [CH]=CC#C
!!    InChI=1S/C4H3/c1-3-4-2/h1-3H
N-C4H3      8/8/12   GMGH   3C   4          G  100.0000 5000.0000  950.06      1
 8.93984381E+00 7.98651619E-03-2.52107333E-06 4.30931720E-10-3.01738281E-14    2
 6.20804004E+04-2.03631319E+01 2.75146864E+00 2.28455962E-02-8.30522735E-06    3
-7.91370093E-09 5.42948667E-12 6.37615326E+04 1.18342953E+01                   4
!!    [CH]
!!    InChI=1S/CH/h1H
CH                000000C   1H   1          G    300.00   5000.00 1000.00      1
 2.87846473E+00 9.70913681E-04 1.44445655E-07-1.30687849E-10 1.76079383E-14    2
 7.10124364E+04 5.48497999E+00 3.48981665E+00 3.23835541E-04-1.68899065E-06    3
 3.16217327E-09-1.40609067E-12 7.07972934E+04 2.08401108E+00                   4
!!   OC1=CCC=C1
!!   InChI=1S/C5H6O/c6-5-3-1-2-4-5/h1,3-4,6H,2H2
C5H5OH-2                C   5H   6O   1     G   100.000  5000.000  933.63      1
 1.80434405E+01 8.06352201E-03-5.21848955E-07 5.72095355E-11-1.19060949E-14    2
-1.62033101E+04-7.29315651E+01 1.93180744E+00 2.51555318E-02 5.54585938E-05    3
-9.94972734E-08 4.25999992E-11-1.09312900E+04 1.58135770E+01                   4
!! O=C1C=C[CH]C1
!! InChI=1S/C5H5O/c6-5-3-1-2-4-5/h1-3H,4H2     CPND2-4R          P2 ortho-C5H5O isomer  Cypent-3-eneone-2yl C5H5O1_1 3-cyclopentene-1-one-2yl
TXC5H5O           000000C   5O   1H   5     G    300.00   5000.00 1000.00      1
 1.26065350E+01 1.67470670E-02-6.10975870E-06 9.96745760E-10-6.01118340E-14    2
 1.41146570E+03-4.26049110E+01 2.30436010E-01 3.23225720E-02 2.89009080E-05    3
-7.06806130E-08 3.34071740E-11 5.55547240E+03 2.53309460E+01                   4
!!    O=C1C=CC=C1
!!    InChI=1S/C5H4O/c6-5-3-1-2-4-5/h1-4H
C5H4O                   H   4C   5O   1     G   298.150  2000.000 1000.00      1
 4.64338710E+00 3.01970024E-02-1.78115079E-05 5.19811934E-09-6.04733199E-13    2
 4.02844920E+03-6.85050840E-01-3.56660938E+00 5.97545729E-02-5.72242406E-05    3
 2.81908591E-08-5.53231428E-12 5.83456926E+03 3.97440402E+01                   4
!!    C#CC=O
!!    InChI=1S/C3H2O/c1-2-3-4/h1,3H
C2HCHO                  C   3H   2O   1     G   300.000 5000.000 2012.000      1  !\COMMENT:  1/31/13
+7.99952054E+00+7.07825497E-03-2.63086819E-06+4.33073185E-10-2.62003284E-14    2
+8.71863156E+03-1.57226237E+01+4.20776611E+00+1.34382727E-02-5.15442099E-06    3
-2.24570818E-11+2.74111284E-13+1.02117375E+04+5.43871873E+00                   4
!!    C1=CC=CCC1=O
!!    InChI=1S/C6H6O/c7-6-4-2-1-3-5-6/h1-4H,5H2
C6H6O-24   8/07/17   LITC   6H   6O   1    0G   300.000  5000.000 1398.000    01
1.59036713E+01 1.78013991E-02-6.12108521E-06 9.53935313E-10-5.54992080E-14    2
-1.00818721E+04-6.16827813E+01-3.78295265E+00 6.73949119E-02-5.45517149E-05    3
2.26537091E-08-3.79446033E-12-3.64301457E+03 4.27055399E+01                   4
!!    C#CC#C
!!    InChI=1S/C4H2/c1-3-4-2/h1-2H
C4H2        8/8/12   GMGH   2C   4          G  100.0000 5000.0000 1061.12      1
 8.53383593E+00 6.48510854E-03-2.11585438E-06 3.35827397E-10-2.11540291E-14    2
 5.22064556E+04-2.14748326E+01 2.01411625E+00 3.10619660E-02-3.68578732E-05    3
 2.21631889E-08-5.16370619E-12 5.35900904E+04 1.03657992E+01                   4
!!    [C]=C=O
!!    InChI=1S/C2O/c1-2-3
C2O                     H  0 C  2 O  1      G   200.0   3000.0   1000.0        1
 4.34400693E+00 4.37478707E-03-2.56000095E-06 6.99892708E-10-7.32213869E-14    2
 4.43197166E+04 2.09419414E+00 3.03149846E+00 1.10743614E-02-1.64643075E-05    3
 1.40152768E-08-4.87136483E-12 4.45479894E+04 8.17433479E+00                   4
!!    C[C]=O
!!    InChI=1S/C2H3O/c1-2-3/h1H3
CH3CO                   C   2H   3O   1     G   100.000  5000.000 1011.57      1
 4.39400390E+00 1.04823631E-02-4.12726915E-06 7.69396111E-10-5.45058431E-14    2
-3.15699544E+03 3.46495242E+00 3.63677806E+00 4.50843851E-03 1.80295069E-05    3
-2.25970038E-08 7.88625499E-12-2.54495147E+03 9.39482958E+00                   4
!!  [C](O)1C=CC=C1
!!  InChI=1S/C5H5O/c6-5-3-1-2-4-5/h1-4,6H     P3
C5H4OH                  C   5H   5O   1     G   100.000  5000.000 1028.96      1
 1.15929419E+01 1.88389234E-02-7.87929528E-06 1.51760996E-09-1.09833018E-13    2
 2.76282108E+03-3.64131017E+01 2.04797682E+00 3.33801996E-02 3.81579986E-06    3
-2.73710389E-08 1.20869003E-11 5.92160225E+03 1.57127272E+01                   4
!!    C=C[CH]C=C
!!    InChI=1S/C5H7/c1-3-5-4-2/h3-5H,1-2H2
CVCCJCVC                C   5H   7          G   200.000 3000.000 1000.000      1  !\AUTHOR: KPS/YS !\COMMENT: [5C5H7] [OPT//HR//HOF: WB97XD/AUG-CC-PVTZ//0K[CBS-APNO/G3/G4]] GENERATED ON [2019_01_10_15_10_20]
+5.86851076E+00+3.08634054E-02-1.50886736E-05+3.59004361E-09-3.36867228E-13    2
+2.06538155E+04-6.26163911E+00+2.85573896E+00+1.98463870E-02+4.89861925E-05    3
-8.24914232E-08+3.56995236E-11+2.21298963E+04+1.32141610E+01                   4
!!    OO
!!    InChI=1S/H2O2/c1-2/h1-2H
H2O2              000000O   2H   2          G    300.00   5000.00 1000.00      1
 4.16500285E+00 4.90831694E-03-1.90139225E-06 3.71185986E-10-2.87908305E-14    2
-1.78617877E+04 2.91615662E+00 4.27611269E+00-5.42822417E-04 1.67335701E-05    3
-2.15770813E-08 8.62454363E-12-1.77025821E+04 3.43505074E+00                   4
!!  C1(O)C=CC=C1
!!  InChI=1S/C5H6O/c6-5-3-1-2-4-5/h1-6H    W1  Wang_C5H6O
C5H5OH                  H   6C   5O   1     G   298.150  2000.000 1000.00      1
 4.57517852E+00 3.73712804E-02-2.30203489E-05 7.26941306E-09-9.38362691E-13    2
-3.63518864E+03-2.30918304E-01-4.80241366E+00 7.74525777E-02-8.69986876E-05    3
 5.24925674E-08-1.28868834E-11-1.88821663E+03 4.43678110E+01                   4
!!    C1=CCC(=C1)C1=CC=CC1
!!    InChI=1S/C10H10/c1-2-6-9(5-1)10-7-3-4-8-10/h1-5,7H,6,8H2
C5H5C5H5-1C             H  10C  10          G   290.000  2500.000  999.22      1
 5.52828884E+00 7.00007064E-02-4.37557948E-05 1.36820751E-08-1.71035204E-12    2
 2.51395059E+04-7.46498286E+00-4.34629246E+00 9.17915790E-02-4.98392250E-05    3
-2.53899025E-11 6.16425185E-12 2.79984065E+04 4.45975547E+01                   4
!!    C1([CH]C=CC2)=C2C=CC=C1
!!    InChI=1S/C10H9/c1-2-6-10-8-4-3-7-9(10)5-1/h1-7H,8H2
C10H9      8/18/17 THERMC  10H   9    0    0G   300.000  5000.000 1388.000    01
2.45424268E+01 2.67866327E-02-9.45749114E-06 1.50005284E-09-8.83433396E-14    2
1.63265244E+04-1.14633515E+02-7.94662027E+00 1.01396120E-01-7.40077012E-05    3
2.65296668E-08-3.76335018E-12 2.76504481E+04 6.01662208E+01                   4
!!    [CH]=C=[CH]
!!    InChI=1S/C3H2/c1-3-2/h1-2H
C3H2              000000C   3H   2          G    300.00   5000.00 1000.00      1
 7.67920588E+00 3.85560826E-03-8.23429967E-07-6.18108592E-11 2.93114202E-14    2
 6.29136323E+04-1.42211873E+01 4.52861333E+00 1.77565501E-02-2.54882946E-05    3
 2.01674629E-08-6.28544707E-12 6.35410087E+04 8.09423748E-01                   4
!!    [CH2]  !! triplet[CH2]
!!    InChI=1S/CH2/h1H2
T-CH2             000000C   1H   2          G    300.00   5000.00 1000.00      1
 2.87410113E+00 3.65639292E-03-1.40894597E-06 2.60179549E-10-1.87727567E-14    2
 4.62636040E+04 6.17119324E+00 3.76267867E+00 9.68872143E-04 2.79489841E-06    3
-3.85091153E-09 1.68741719E-12 4.60040401E+04 1.56253185E+00                   4
!!    C1(=O)[C]=CC=C1
!!    InChI=1S/C5H3O/c6-5-3-1-2-4-5/h1-3H
C5H3O                   C   5H   3O   1     G   300.000 3500.000 1500.000      1  !\COMMENT:  TAK0905
+1.19961781E+01+1.34287065E-02-5.90045309E-06+1.22553862E-09-9.86114716E-14    2
+2.89592010E+04-4.07548249E+01-3.03242604E+00+5.43937201E-02-4.95018348E-05    3
+2.25523751E-08-4.10727920E-12+3.35644081E+04+3.78374823E+01                   4
!!    C#CC=C
!!    InChI=1S/C4H4/c1-3-4-2/h1,4H,2H2
C4H4                    C   4H   4          G   100.000  5000.000  955.25      1
 8.52652790E+00 1.08961504E-02-3.56564474E-06 6.31243407E-10-4.51890878E-14    2
 3.11962382E+04-1.96435183E+01 2.87083262E+00 1.82042500E-02 1.06710562E-05    3
-2.72491598E-08 1.19477652E-11 3.30238451E+04 1.12934384E+01                   4
!!    CCc1ccccc1, ethylbenzene
!!    InChI=1S/C8H10/c1-2-8-6-4-3-5-7-8/h3-7H,2H2,1H3 C8H10_1
A1C2H5                  H  10C   8          G   298.150  2000.000 1000.00      1
 5.45381557E+00 5.35142510E-02-2.78511430E-05 6.93571287E-09-6.57773304E-13    2
-6.81400882E+02-4.70473539E+00-5.36884209E+00 8.59067372E-02-6.00926558E-05    3
 1.75319103E-08-5.82286571E-13 2.02803787E+03 5.02328678E+01                   4
!!    OC1=CC=C[C]=C1
!!    InChI=1S/C6H5O/c7-6-4-2-1-3-5-6/h1-2,4-5,7H
C6H4OH                  C   6H   5O   1         300.000 5000.000 1402.000      1  !\COMMENT:  4/ 9/ 9 THERM
+1.73187560E+01+1.36366984E-02-4.68316332E-06+7.29071204E-10-4.23805358E-14    2
+1.14990276E+04-6.89986593E+01-5.99875435E+00+8.59063379E-02-9.12525636E-05    3
+4.72275890E-08-9.35576749E-12+1.78621926E+04+4.99931427E+01                   4
!!    O=[C]C1=CC=CC=C1
!!    InChI=1S/C7H5O/c8-6-7-4-2-1-3-5-7/h1-5H
A1CO                    C   7H   5O   1     G   100.000  5000.000 1019.89      1
 1.76958321E+01 1.42960573E-02-3.17667059E-06 3.75648446E-11 1.29644999E-14    2
 5.51719613E+03-6.77955746E+01 1.69954986E+00 3.75522208E-02 2.06864578E-05    3
-5.35175631E-08 2.24447878E-11 1.08334393E+04 1.97588558E+01                   4
!!    C=CO
!!    InChI=1S/C2H4O/c1-2-3/h2-3H,1H2
C2H3OH                  C   2H   4O   1     G   300.000 5000.000 1410.000      1  !\COMMENT:  2/ 3/ 9 THERM
+8.32598158E+00+8.03387281E-03-2.63928405E-06+3.98410726E-10-2.26551155E-14    2
-1.83221436E+04-2.02080305E+01-1.27972260E-01+3.38506073E-02-3.30644935E-05    3
+1.64858739E-08-3.19935455E-12-1.59914544E+04+2.30438601E+01                   4
!!    C[O]
!!    InChI=1S/CH3O/c1-2/h1H3
CH3O              000000C   1O   1H   3     G    300.00   5000.00 1000.00      1
 3.77079900E+00 7.87149700E-03-2.65638400E-06 3.94443100E-10-2.11261600E-14    2
 1.27832520E+02 2.92957500E+00 2.10620400E+00 7.21659500E-03 5.33847200E-06    3
-7.37763600E-09 2.07561000E-12 9.78601100E+02 1.31521770E+01                   4
!!    C1=CC(=CC1)C1C=CCC=1
!!    InChI=1S/C10H10/c1-2-6-9(5-1)10-7-3-4-8-10/h1,3,5-8H,2,4H2
C5H5C5H5-1E             H  10C  10          G   290.000  2500.000 1005.81      1
 6.81038039E+00 6.64632260E-02-4.06927984E-05 1.25607100E-08-1.56044749E-12    2
 2.57325564E+04-1.37649069E+01-4.51417245E+00 9.48358189E-02-5.81542314E-05    3
 7.66233280E-09 3.75131948E-12 2.88535313E+04 4.51253070E+01                   4
!!    C1C=CC=C1
!!    InChI=1S/C5H6/c1-2-4-5-3-1/h1-4H,5H2
C5H6              000000C   5H   6          G    300.00   3000.00 1000.00      1
 2.30537462E-01 4.09571826E-02-2.41588958E-05 6.79763480E-09-7.36374421E-13    2
 1.43779465E+04 2.02551234E+01-5.13691194E+00 6.06953453E-02-4.60552837E-05    3
 1.28457201E-08 7.41214852E-13 1.53675713E+04 4.61567559E+01                   4
!!    C1=CCC(=C1)C1C=CC=C1
!!    InChI=1S/C10H10/c1-2-6-9(5-1)10-7-3-4-8-10/h1-7,9H,8H2 C10H10_4
C5H5C5H5-1B             H  10C  10          G   298.150  2000.000 1000.00      1
 7.50208471E+00 6.18374740E-02-3.45870513E-05 9.51584034E-09-1.03960949E-12    2
 3.05935961E+04-1.50827338E+01-7.45955141E+00 1.10604605E-01-9.11186286E-05    3
 3.61241454E-08-4.92183247E-12 3.41398940E+04 5.98683652E+01                   4
!!    C1C=CC(C=1)C1C=CC=C1
!!    InChI=1S/C10H10/c1-2-6-9(5-1)10-7-3-4-8-10/h1-10H C10H10_3
C5H5C5H5-1A             H  10C  10          G   298.150  2000.000 1000.00      1
 7.26046528E+00 6.27989635E-02-3.49848353E-05 9.52170110E-09-1.01949198E-12    2
 3.14760669E+04-1.60047365E+01-1.09224840E+01 1.23439540E-01-1.07808869E-04    3
 4.59798360E-08-7.11122051E-12 3.57172178E+04 7.47402882E+01                   4
!!    C=CC=C[C]=O
!!    InChI=1S/C5H5O/c1-2-3-4-5-6/h2-4H,1H2       C5Y1D24-1R
CVCCVCCJVO              C   5H   5O   1     G   300.000 5000.000 1399.000      1  !\COMMENT:  2/ 5/ 9 THERM
+1.53178248E+01+1.27352911E-02-4.35882964E-06+6.76912763E-10-3.92771371E-14    2
+7.60582726E+03-5.43599625E+01-2.18492198E-01+5.92100223E-02-5.89241174E-05    3
+2.97411920E-08-5.85244770E-12+1.20600764E+04+2.55968530E+01                   4
!!    [O]CC1=CC=CC=C1, benzoxyl
!!    InChI=1S/C7H7O/c8-6-7-4-2-1-3-5-7/h1-5H,6H2
A1CH2O            000000C   7O   1H   7     G    300.00   3000.00 1000.00      1
 2.07930551E+00 5.52718914E-02-3.31303125E-05 9.40679473E-09-1.02414852E-12    2
 1.17599254E+04 1.58657771E+01-4.75332952E+00 7.85832217E-02-5.57118748E-05    3
 1.19664685E-08 2.51904475E-12 1.31155256E+04 4.93043758E+01                   4
!!    CC1=CC=C[CH]1
!!    InChI=1S/C6H7/c1-6-4-2-3-5-6/h2-5H,1H3
C5H4CH3         17   LITC   6H   7    0     G   300.000  5000.000 1400.000     1
 1.50272937E+01 1.80083785E-02-6.16578517E-06 9.57991706E-10-5.56127818E-14    2
 1.93817415E+04-5.65979232E+01-3.91288831E+00 6.72649774E-02-5.62562950E-05    3
 2.44181559E-08-4.27683233E-12 2.54520537E+04 4.33343548E+01                   4
!!    C=C=C=C[O]
!!    InChI=1S/C4H3O/c1-2-3-4-5/h4H,1H2
C4H3O             000000O   1H   3C   4     G    300.00   4000.00 1000.00      1
 1.29455763E+01 7.95235476E-03-2.80679691E-06 4.45205248E-10-2.62240810E-14    2
 1.75946397E+04-4.78819894E+01-5.84674088E+00 6.20875882E-02-6.30010605E-05    3
 3.06882361E-08-5.75456234E-12 2.30253176E+04 4.92940922E+01                   4
!!    C=C(C)C
!!    InChI=1S/C4H8/c1-4(2)3/h1H2,2-3H3
IXC4H8            000000C   4H   8          G    300.00   5000.00 1000.00      1
 2.86958571E+00 3.29649207E-02-1.46431210E-05 2.41629691E-09 0.00000000E+00    2
-4.22675236E+03 9.39239621E+00 9.38433173E-01 3.90547287E-02-2.16437148E-05    3
 5.87267077E-09-6.14435479E-13-3.74817891E+03 1.91442985E+01                   4
!!    [CH2]C(=C)C
!!    InChI=1S/C4H7/c1-4(2)3/h1-2H2,3H3
IXC4H7            000000C   4H   7          G    300.00   5000.00 1000.00      1
 4.86718299E+00 2.75411161E-02-1.19816020E-05 1.93828198E-09 0.00000000E+00    2
 1.34120718E+04-1.04709781E+00-7.20881697E-04 4.36495730E-02-3.16385877E-05    3
 1.23984983E-08-2.04378360E-12 1.45717785E+04 2.33234340E+01                   4
!!    C=C=C