ELEMENTS
C  H  O  AR N  
END
SPECIES
A1CO              TXCH2             CH2OH             CVCCVCCJVO        A1X               OC6H4O            C2H3CHO           NXC4H5            
A1CHO             TXC5H5O           A1CH2O            C6H5CYCH2O        CH2CHO            C5H4CH2           SXCH2             C5H6              
C3H3              AXC3H4            C5H5CH3           C6H6O             A1OH              C3H2              C6H5OCH2          C2H3              
C5H4CH3           CH4               C2H6              HCCO              CH3O              C2H2              O                 AXC3H5            
C3H6              C5H5              HCO               HO2               H                 C2H4              CH2O              C2H5              
A1O               CH3               A1                AR                N2                CO                O2                CO2               
C6H5OCH3          H2                H2O               OH                
END
REACTIONS
H2+AR<=>2H+AR                            5.840e+18   -1.100 104380.02
H2+M<=>2H+M                              4.577e+19   -1.400 104380.02
AR/0.00/ CO/1.90/ CO2/3.80/ H2/2.50/ H2O/12.00/ 
O+H+M<=>OH+M                             4.714e+18   -1.000      0.00
AR/0.75/ CO/1.90/ CO2/3.80/ H2/2.50/ H2O/12.00/ 
O+H2<=>H+OH                              8.792e+14    0.000  19169.93
     DUPLICATE
2O+AR<=>O2+AR                            1.886e+13    0.000  -1788.00
O+H2<=>H+OH                              3.818e+12    0.000   7947.90
     DUPLICATE
2O+M<=>O2+M                              6.165e+15   -0.500      0.00
AR/0.00/ CO/1.90/ CO2/3.80/ H2/2.50/ H2O/12.00/ 
H2+OH<=>H2O+H                            2.160e+08    1.510   3429.97
2OH<=>O+H2O                              3.340e+04    2.420  -1929.97
2H2O<=>H+OH+H2O                          1.006e+26   -2.440 120179.97
H2O+M<=>H+OH+M                           6.064e+27   -3.322 120789.91
CO/1.90/ O2/1.50/ CO2/3.80/ H2/3.00/ H2O/0.00/ 
H+O2(+M)<=>HO2(+M)                       4.651e+12    0.440      0.00
AR/0.67/ CO/1.90/ O2/0.78/ CO2/3.80/ H2/2.00/ H2O/14.00/ 
     LOW  /  6.366e+20   -1.720    524.86 /
!     FCCHECK/     0.5     1e-30    0.5     1e+30      0         0
     TROE/     0.5    1e-30     1e+30        /
H+O2<=>O+OH                              1.040e+14    0.000  15286.09
HO2+H<=>2OH                              7.079e+13    0.000    294.93
HO2+O<=>O2+OH                            2.850e+10    1.000   -723.95
OH+HO2<=>H2O+O2                          1.210e+09    1.240  -1307.60
     DUPLICATE
HO2+H<=>H2+O2                            2.750e+06    2.090  -1451.00
OH+HO2<=>H2O+O2                          1.930e+20   -2.490    584.13
     DUPLICATE
TXCH2+OH<=>CH2O+H                        2.000e+13    0.000      0.00
TXCH2+O<=>HCO+H                          8.000e+13    0.000      0.00
TXCH2+H2<=>H+CH3                         5.000e+05    2.000   7229.92
TXCH2+HO2<=>CH2O+OH                      2.000e+13    0.000      0.00
TXCH2+O2<=>CH2O+O                        2.400e+12    0.000   1500.96
2TXCH2=>C2H2+2H                          2.000e+14    0.000  10989.48
TXCH2+O2=>OH+H+CO                        5.000e+12    0.000   1500.96
TXCH2+H(+M)<=>CH3(+M)                    6.000e+14    0.000      0.00
CH4/2.00/ C2H6/3.00/ AR/0.70/ CO/1.75/ CO2/3.60/ H2/2.00/ H2O/12.00/ 
     LOW  /  1.040e+26   -2.760   1598.95 /
     TROE/   0.562       91      5836      8552 /
2TXCH2<=>C2H2+H2                         1.600e+15    0.000  11943.12
TXCH2+O2=>CO2+2H                         5.800e+12    0.000   1500.96
SXCH2+H2O<=>TXCH2+H2O                    3.000e+13    0.000      0.00
SXCH2+H2<=>CH3+H                         7.000e+13    0.000      0.00
SXCH2+O<=>HCO+H                          1.500e+13    0.000      0.00
SXCH2+O2<=>CO+H2O                        1.200e+13    0.000      0.00
SXCH2+OH<=>CH2O+H                        3.000e+13    0.000      0.00
SXCH2+H2O=>H2+CH2O                       6.820e+10    0.250   -934.51
SXCH2+O2<=>H+OH+CO                       2.800e+13    0.000      0.00
SXCH2+O<=>CO+H2                          1.500e+13    0.000      0.00
SXCH2+AR<=>TXCH2+AR                      9.000e+12    0.000    599.90
CH3+HO2<=>CH3O+OH                        1.070e+12    0.273   -693.12
CH3+OH<=>CH2OH+H                         3.046e+10    0.833   3570.01
PLOG /     0.010 1.054e+10    0.965   3209.99 /
PLOG /     0.100 1.175e+10    0.950   3250.00 /
PLOG /     1.000 3.046e+10    0.833   3570.01 /
PLOG /    10.000 9.912e+12    0.134   5640.01 /
PLOG /   100.000 2.334e+14   -0.186   8600.00 /
CH3+O<=>CH2O+H                           5.540e+13    0.050   -135.99
CH3+O2<=>CH3O+O                          7.546e+12    0.000  28320.03
2CH3(+M)<=>C2H6(+M)                      2.277e+15   -0.690    174.95
CO/2.00/ CO2/3.00/ H2O/5.00/ 
     LOW  /  8.054e+31   -3.750    981.60 /
     TROE/       0      570     1e+30     1e+30 /
CH3+O2<=>CH2O+OH                         2.641e+00    3.283   8104.92
CH3+OH<=>H+CH3O                          1.230e+09    1.011  11950.00
PLOG /     0.010 1.186e+09    1.016  11940.01 /
PLOG /     0.100 1.188e+09    1.016  11940.01 /
PLOG /     1.000 1.230e+09    1.011  11950.00 /
PLOG /    10.000 1.798e+09    0.965  12059.99 /
PLOG /   100.000 5.242e+10    0.551  13070.00 /
CH3+HO2<=>CH4+O2                         1.200e+05    2.227  -3021.03
CH3+OH<=>CH2O+H2                         1.650e+07    0.973  -2010.00
PLOG /     0.010 3.502e+05    1.441  -3244.00 /
PLOG /     0.100 8.854e+05    1.327  -2975.00 /
PLOG /     1.000 1.650e+07    0.973  -2010.00 /
PLOG /    10.000 5.374e+09    0.287    280.00 /
PLOG /   100.000 9.494e+18   -2.199   9769.00 /
CH3+TXCH2<=>C2H4+H                       2.000e+13    0.000      0.00
CH3+O<=>H+H2+CO                          8.310e+12    0.050   -135.99
CH3+H(+M)<=>CH4(+M)                      6.920e+13    0.180      0.00
CH4/5.00/ C2H6/3.00/ AR/0.70/ CO/1.50/ CO2/2.00/ H2/2.00/ H2O/6.00/ 
     LOW  /  3.470e+38   -6.300   5074.09 /
     TROE/   0.783       74      2941      6964 /
CH3+OH<=>SXCH2+H2O                       5.282e+17   -1.518   1772.00
PLOG /     0.010 4.936e+14   -0.669   -445.80 /
PLOG /     0.100 1.207e+15   -0.778   -175.60 /
PLOG /     1.000 5.282e+17   -1.518   1772.00 /
PLOG /    10.000 4.788e+23   -3.155   7003.01 /
PLOG /   100.000 8.433e+19   -1.962   8244.00 /
2CH3<=>H+C2H5                            3.100e+14   -0.362  13372.49
PLOG /     0.010 4.740e+12    0.105  10664.29 /
PLOG /     0.100 2.570e+13   -0.096  11406.09 /
PLOG /     1.000 3.100e+14   -0.362  13372.49 /
PLOG /    10.000 2.150e+10    0.885  13532.51 /
PLOG /   100.000 1.032e+02    3.230  11236.09 /
CH3+SXCH2<=>C2H4+H                       2.000e+13    0.000      0.00
CH3+OH<=>TXCH2+H2O                       4.293e+04    2.568   3997.85
CH4+O<=>CH3+OH                           1.020e+09    1.500   8599.43
CH4+H<=>CH3+H2                           6.600e+08    1.620  10841.30
CH4+OH<=>CH3+H2O                         1.000e+08    1.600   3119.03
CH4+TXCH2<=>2CH3                         2.460e+06    2.000   8269.60
CH4+SXCH2<=>2CH3                         1.600e+13    0.000   -571.22
CO+HO2<=>CO2+OH                          1.570e+05    2.180  17942.64
CO+H2(+M)<=>CH2O(+M)                     4.300e+07    1.500  79600.90
CH4/2.00/ C2H6/3.00/ AR/0.70/ CO/1.75/ CO2/3.60/ H2/2.00/ H2O/12.00/ 
     LOW  /  5.070e+27   -3.420  84349.90 /
     TROE/   0.932      197      1540     10300 /
CO+O2<=>CO2+O                            1.050e+12    0.000  47700.05
CO+O(+M)<=>CO2(+M)                       1.800e+10    0.000   2385.28
AR/0.70/ CO/1.75/ CO2/3.60/ H2/2.00/ H2O/12.00/ 
     LOW  /  1.550e+24   -2.790   4192.16 /
!     FCCHECK/       0         0      0         0      1         0
     TROE/       1     1.00 10000000.00 10000000.00 /
SXCH2+CO<=>TXCH2+CO                      9.000e+12    0.000      0.00
CO+OH<=>CO2+H                            8.700e+05    1.730   -685.00
PLOG /     0.013 2.100e+05    1.900  -1064.00 /
PLOG /     0.132 2.500e+05    1.880  -1043.00 /
PLOG /     1.315 8.700e+05    1.730   -685.00 /
PLOG /    13.158 6.800e+06    1.480     48.00 /
PLOG /   131.580 2.300e+07    1.350    974.00 /
2HCO<=>CO+CH2O                           2.700e+13    0.000      0.00
HCO+H(+M)<=>CH2O(+M)                     1.090e+12    0.480   -260.52
CH4/2.00/ C2H6/3.00/ AR/0.70/ CO/1.75/ CO2/3.60/ H2/2.00/ H2O/12.00/ 
     LOW  /  2.470e+24   -2.570    425.43 /
     TROE/  0.7824      271      2755      6570 /
HCO+M<=>CO+H+M                           4.748e+11    0.659  14873.80
CH4/2.00/ C2H6/3.00/ CO/1.75/ CO2/3.60/ H2/2.00/ H2O/0.00/ 
HCO+O<=>CO2+H                            3.000e+13    0.000      0.00
HCO+OH<=>CO+H2O                          3.011e+13    0.000      0.00
HCO+CH3<=>CO+CH4                         2.650e+13    0.000      0.00
HCO+O2<=>CO+HO2                          1.200e+10    0.807   -727.06
HCO+O<=>CO+OH                            3.020e+13    0.000      0.00
HCO+H<=>CO+H2                            1.200e+14    0.000      0.00
CH2O+O2<=>HCO+HO2                        1.000e+14    0.000  40000.00
CH2O+H<=>HCO+H2                          5.740e+07    1.900   2741.40
CH2O+OH<=>HCO+H2O                        3.430e+09    1.180   -446.94
CH3+CH2O<=>CH4+HCO                       3.320e+03    2.810   5860.42
CH2O+O<=>HCO+OH                          3.900e+13    0.000   3539.67
CH2OH+O2<=>CH2O+HO2                      1.800e+13    0.000    901.05
CH2OH+H<=>SXCH2+H2O                      3.280e+13   -0.090    609.47
CH2OH+O<=>CH2O+OH                        1.000e+13    0.000      0.00
CH2OH+HCO<=>2CH2O                        1.500e+13    0.000      0.00
CH2OH(+M)<=>CH2O+H(+M)                   7.370e+10    0.811  39585.10
CH4/2.00/ C2H6/3.00/ CH2O/2.50/ AR/0.85/ CO/1.50/ CO2/2.00/ H2/2.00/ H2O/6.00/ 
     LOW  /  3.500e+21   -1.990  24000.00 /
     TROE/   0.844      900         1      3315 /
CH2OH+H<=>CH2O+H2                        2.000e+13    0.000      0.00
CH2OH+OH<=>CH2O+H2O                      5.000e+12    0.000      0.00
CH3O+H<=>CH2OH+H                         4.150e+07    1.630   1924.00
CH3O+OH<=>CH2O+H2O                       3.619e+02    2.498   1889.34
CH3O+O2<=>CH2O+HO2                       2.170e+10    0.000   1748.80
CH3O+O<=>CH2O+OH                         1.000e+13    0.000      0.00
CH3O+H<=>CH2O+H2                         2.000e+13    0.000      0.00
CH3O+H<=>SXCH2+H2O                       2.620e+14   -0.230   1070.75
CH3O(+M)<=>CH2O+H(+M)                    1.130e+10    1.210  24084.80
CH4/2.00/ C2H6/3.00/ AR/0.85/ CO/1.50/ CO2/2.00/ H2/2.00/ H2O/6.00/ 
     LOW  /  6.022e+16   -0.547  18023.90 /
     TROE/   0.341       28      1000      2339 /
SXCH2+CO2<=>CH2O+CO                      1.400e+13    0.000      0.00
SXCH2+CO2<=>TXCH2+CO2                    7.000e+12    0.000      0.00
C2H2+O2<=>2HCO                           6.100e+12    0.000  53250.00
     DUPLICATE
C2H2+H(+M)<=>C2H3(+M)                    1.709e+10    1.270   2707.93
CH4/2.00/ C2H6/3.00/ AR/0.70/ CO/1.75/ CO2/3.60/ H2/2.00/ H2O/12.00/ 
     LOW  /  6.340e+31   -4.660   3781.07 /
!     FCCHECK/  0.7878         1 0.2122    -10210      0         0
     TROE/  0.2122        1    -10210        /
C2H2+OH<=>CH3+CO                         1.277e+09    0.730   2578.99
PLOG /     0.010 4.757e+05    1.680   -329.80 /
PLOG /     0.025 4.372e+06    1.400    226.50 /
PLOG /     0.100 7.648e+07    1.050   1115.00 /
PLOG /     1.000 1.277e+09    0.730   2578.99 /
PLOG /    10.000 4.312e+08    0.920   3735.99 /
PLOG /   100.000 8.250e+05    1.770   4696.99 /
C2H2+SXCH2<=>C2H2+TXCH2                  4.000e+13    0.000      0.00
C2H2+O2<=>2HCO                           1.700e+07    1.670  70960.09
     DUPLICATE
C2H2+SXCH2<=>C3H3+H                      3.970e+15   -0.571     -4.78
C2H2+HO2<=>CH2CHO+O                      3.020e+07    0.980  13309.99
PLOG /     0.010 5.500e+06    1.190  12880.00 /
PLOG /     0.010 2.940e-04    4.160   7735.99 /
PLOG /     0.100 1.160e+08    0.770  13600.00 /
PLOG /     0.100 6.140e-03    3.810   8394.00 /
PLOG /     0.316 1.200e+07    1.090  13050.00 /
PLOG /     0.316 5.440e-04    4.090   8044.00 /
PLOG /     1.000 3.020e+07    0.980  13309.99 /
PLOG /     1.000 2.480e-04    4.190   8203.01 /
PLOG /     3.160 1.980e+74  -16.330 109200.05 /
PLOG /     3.160 6.570e+04    1.850  12359.99 /
PLOG /    10.000 7.500e+14   -1.170  18350.00 /
PLOG /    10.000 2.920e-01    3.380  10590.01 /
PLOG /    31.600 8.630e+18   -2.270  22229.99 /
PLOG /    31.600 1.950e+00    3.170  11740.01 /
PLOG /   100.000 5.780e+18   -2.090  24349.90 /
PLOG /   100.000 1.100e-01    3.520  11980.00 /
C2H2+HO2<=>CO+CH3O                       8.940e+69  -15.850 102500.00
PLOG /     0.010 3.540e+11    0.000  49510.04 /
PLOG /     0.010 2.890e+04    1.230   9903.01 /
PLOG /     0.100 2.780e+08    0.010  11920.00 /
PLOG /     0.100 9.670e-07    4.150   5172.99 /
PLOG /     0.316 8.060e+07    0.180  11650.00 /
PLOG /     0.316 1.840e-08    4.620   4516.99 /
PLOG /     1.000 8.940e+69  -15.850 102500.00 /
PLOG /     1.000 5.380e+05    0.860  10700.00 /
PLOG /     3.160 5.660e+12   -1.250  14570.00 /
PLOG /     3.160 5.370e-04    3.420   7218.00 /
PLOG /    10.000 3.300e+23   -4.450  21209.99 /
PLOG /    31.600 2.430e+22   -3.960  22650.00 /
PLOG /    31.600 8.110e+00    2.300  10559.99 /
PLOG /   100.000 1.170e+18   -2.570  22359.99 /
PLOG /   100.000 6.860e-04    3.420   9328.99 /
C2H2+O<=>HCCO+H                          2.958e+09    1.280   2472.04
C2H2+HO2=>CH2O+H+CO                      7.770e+102  -24.180 138599.90
PLOG /     0.010 9.100e+13   -1.170  13750.00 /
PLOG /     0.010 1.970e+01    2.560   7382.00 /
PLOG /     0.100 9.940e+00    2.640   7253.01 /
PLOG /     0.100 3.630e+13   -1.050  13520.00 /
PLOG /     0.316 6.050e-06    4.340   4525.00 /
PLOG /     0.316 1.610e+10   -0.000  11720.01 /
PLOG /     1.000 7.770e+102  -24.180 138599.90 /
PLOG /     1.000 1.880e+08    0.600  10850.00 /
PLOG /     3.160 1.220e+16   -1.750  15180.00 /
PLOG /     3.160 8.260e+00    2.690   8025.00 /
PLOG /    10.000 1.710e+36   -7.770  26969.88 /
PLOG /    10.000 2.300e+07    0.910  11709.99 /
PLOG /    31.600 4.140e+28   -5.300  25130.02 /
PLOG /    31.600 4.190e+04    1.700  11250.00 /
PLOG /   100.000 5.770e+16   -1.700  20029.99 /
PLOG /   100.000 1.010e-05    4.310   6828.99 /
C2H2+CH3<=>AXC3H5                        2.680e+53  -12.820  35729.92
PLOG /     0.100 8.200e+53  -13.320  33200.05 /
PLOG /     1.000 2.680e+53  -12.820  35729.92 /
PLOG /     2.000 3.640e+52  -12.460  36126.91 /
PLOG /     5.000 1.040e+51  -11.890  36476.10 /
PLOG /    10.000 4.400e+49  -11.400  36700.05 /
PLOG /   100.000 3.800e+44   -9.630  37599.90 /
C2H2+TXCH2<=>C3H3+H                      1.200e+13    0.000   6619.98
C2H2+O<=>TXCH2+CO                        7.395e+08    1.280   2472.04
C2H2+HO2<=>CO2+CH3                       3.960e+84  -19.800 119799.95
PLOG /     0.010 1.150e-07    4.310   4614.01 /
PLOG /     0.010 2.010e+08    0.000  11790.01 /
PLOG /     0.100 1.100e-07    4.320   4621.99 /
PLOG /     0.100 2.010e+08    0.000  11780.00 /
PLOG /     0.316 1.750e+142  -35.040 188700.05 /
PLOG /     0.316 1.550e+05    0.950  10200.00 /
PLOG /     1.000 3.960e+84  -19.800 119799.95 /
PLOG /     1.000 1.380e+06    0.680  10809.99 /
PLOG /     3.160 5.020e+13   -1.600  14980.00 /
PLOG /     3.160 9.290e-03    3.000   7659.01 /
PLOG /    10.000 8.560e+28   -6.150  24030.12 /
PLOG /    10.000 1.860e+04    1.260  11230.00 /
PLOG /    31.600 1.280e+27   -5.420  25380.02 /
PLOG /    31.600 2.890e+02    1.790  11240.01 /
PLOG /   100.000 1.710e+15   -1.800  20370.01 /
PLOG /   100.000 3.900e-07    4.210   7314.01 /
C2H2+HO2<=>CH2O+HCO                      3.330e+102  -24.180 138599.90
PLOG /     0.010 3.900e+13   -1.170  13750.00 /
PLOG /     0.010 8.430e+00    2.560   7382.00 /
PLOG /     0.100 4.260e+00    2.640   7253.01 /
PLOG /     0.100 1.560e+13   -1.050  13520.00 /
PLOG /     0.316 2.590e-06    4.340   4525.00 /
PLOG /     0.316 6.900e+09   -0.000  11720.01 /
PLOG /     1.000 3.330e+102  -24.180 138599.90 /
PLOG /     1.000 8.070e+07    0.600  10850.00 /
PLOG /     3.160 5.220e+15   -1.750  15180.00 /
PLOG /     3.160 3.540e+00    2.690   8025.00 /
PLOG /    10.000 7.320e+35   -7.770  26969.88 /
PLOG /    10.000 9.840e+06    0.910  11709.99 /
PLOG /    31.600 1.780e+28   -5.300  25130.02 /
PLOG /    31.600 1.790e+04    1.700  11250.00 /
PLOG /   100.000 2.470e+16   -1.700  20029.99 /
PLOG /   100.000 4.320e-06    4.310   6828.99 /
C2H3+HCO<=>C2H4+CO                       9.000e+13    0.000      0.00
C2H3+CH2O<=>C2H4+HCO                     1.420e+10    0.209   3934.20
PLOG /     0.001 1.110e+07    1.090   1807.20 /
PLOG /     0.010 2.470e+07    0.993   1994.90 /
PLOG /     0.100 2.470e+08    0.704   2596.20 /
PLOG /     1.000 1.420e+10    0.209   3934.20 /
PLOG /    10.000 3.450e+13   -0.726   6944.31 /
PLOG /   100.000 3.310e+14   -0.866  10965.70 /
PLOG /  1000.000 1.650e+01    3.170   9399.81 /
C2H3+CH2O<=>C2H3CHO+H                    1.750e+07    1.450   3428.01
PLOG /     0.001 2.600e+04    2.260   1510.30 /
PLOG /     0.010 5.130e+04    2.170   1675.50 /
PLOG /     0.100 3.990e+05    1.910   2218.30 /
PLOG /     1.000 1.750e+07    1.450   3428.01 /
PLOG /    10.000 1.350e+09    0.933   5172.99 /
PLOG /   100.000 2.240e+11    0.357   8001.29 /
PLOG /  1000.000 6.010e+05    2.090   7895.60 /
C2H3+H<=>C2H2+H2                         3.000e+13    0.000      0.00
C2H3+O2<=>C2H2+HO2                       2.150e+07    1.190   3366.99
PLOG /     0.010 1.080e+07    1.280   3321.99 /
PLOG /     0.010 4.760e+01    2.750   -796.40 /
PLOG /     0.100 7.750e+06    1.330   3215.99 /
PLOG /     0.100 5.160e+01    2.730   -768.30 /
PLOG /     0.316 1.210e+07    1.270   3310.99 /
PLOG /     0.316 5.550e+01    2.730   -658.50 /
PLOG /     1.000 2.150e+07    1.190   3366.99 /
PLOG /     1.000 4.600e+01    2.760   -492.80 /
PLOG /     3.160 1.130e+08    1.000   3695.01 /
PLOG /     3.160 3.750e+00    3.070   -601.00 /
PLOG /    10.000 1.310e+11    0.120   5871.99 /
PLOG /    10.000 5.480e+00    3.070     85.70 /
PLOG /    31.600 1.190e+09    0.820   5616.99 /
PLOG /    31.600 4.470e+08    0.000    955.00 /
PLOG /   100.000 1.060e+17   -1.450  12230.00 /
PLOG /   100.000 2.020e+01    2.940   1847.00 /
C2H3+CH3<=>AXC3H5+H                      5.300e+29   -4.570  14400.00
PLOG /     0.010 4.120e+29   -4.950   8000.00 /
PLOG /     0.010 5.730e+15   -0.770   1195.90 /
PLOG /     0.100 4.860e+30   -5.030  11300.00 /
PLOG /     0.100 2.060e+13   -0.074   1428.70 /
PLOG /     1.000 5.300e+29   -4.570  14400.00 /
PLOG /     1.000 4.480e+10    0.600   1421.60 /
PLOG /    10.000 1.320e+30   -4.540  19300.00 /
PLOG /    10.000 4.100e+06    1.710   1056.90 /
PLOG /   100.000 5.160e+28   -4.030  23800.00 /
PLOG /   100.000 1.370e-01    3.910   -353.55 /
2C2H3<=>C2H2+C2H4                        1.450e+13    0.000      0.00
2C2H3<=>NXC4H5+H                         2.400e+20   -2.040  15360.99
PLOG /     0.026 1.100e+24   -3.280  12395.00 /
PLOG /     0.120 4.600e+24   -3.380  14650.00 /
PLOG /     1.000 2.400e+20   -2.040  15360.99 /
C2H3+H<=>C2H4                            8.820e+29   -5.236   5080.16
PLOG /     0.001 1.193e+26   -5.021   3089.75 /
PLOG /     0.010 1.053e+27   -5.000   3073.38 /
PLOG /     0.100 2.107e+28   -5.085   3485.78 /
PLOG /     1.000 8.820e+29   -5.236   5080.16 /
PLOG /    10.000 3.624e+22   -2.791   2637.00 /
PLOG /   100.000 1.250e+19   -1.592   1961.09 /
C2H3+O<=>C2H2+OH                         1.030e+12    0.200   -427.10
C2H3+O<=>CH2CHO                          1.030e+13    0.210   -427.82
C2H3+O2<=>CH2CHO+O                       6.450e+20   -2.650   6489.01
PLOG /     0.010 7.160e+20   -2.670   6741.99 /
PLOG /     0.010 1.240e+10    0.620   -277.60 /
PLOG /     0.100 7.020e+20   -2.670   6713.00 /
PLOG /     0.100 1.290e+10    0.620   -247.70 /
PLOG /     0.316 8.970e+20   -2.700   6724.00 /
PLOG /     0.316 1.510e+10    0.600   -162.50 /
PLOG /     1.000 6.450e+20   -2.650   6489.01 /
PLOG /     1.000 1.840e+10    0.580     38.40 /
PLOG /     3.160 4.090e+20   -2.530   6406.00 /
PLOG /     3.160 8.860e+09    0.670    248.00 /
PLOG /    10.000 1.600e+23   -3.220   8696.99 /
PLOG /    10.000 6.670e+09    0.720    778.10 /
PLOG /    31.600 2.850e+25   -3.770  11530.00 /
PLOG /    31.600 1.430e+09    0.920   1219.00 /
PLOG /   100.000 9.270e+25   -3.800  13909.99 /
PLOG /   100.000 7.140e+07    1.280   1401.00 /
C2H3+O2<=>CH2O+HCO                       3.030e+35   -7.320  11820.00
PLOG /     0.010 2.770e+36   -7.600  12640.01 /
PLOG /     0.010 5.040e+15   -1.280    515.30 /
PLOG /     0.100 2.700e+36   -7.600  12609.99 /
PLOG /     0.100 5.100e+15   -1.280    513.00 /
PLOG /     0.316 2.170e+36   -7.570  12490.01 /
PLOG /     0.316 5.340e+15   -1.290    520.60 /
PLOG /     1.000 3.030e+35   -7.320  11820.00 /
PLOG /     1.000 6.760e+15   -1.310    645.70 /
PLOG /     3.160 1.590e+36   -7.470  12459.99 /
PLOG /     3.160 1.050e+16   -1.360   1066.00 /
PLOG /    10.000 5.760e+35   -7.200  13430.00 /
PLOG /    10.000 2.840e+15   -1.180   1429.00 /
PLOG /    31.600 3.540e+20   -2.570   5578.01 /
PLOG /    31.600 1.140e+69  -19.230  14759.99 /
PLOG /   100.000 3.030e+33   -6.280  16000.00 /
PLOG /   100.000 4.680e+10    0.190    830.60 /
C2H3+CH3<=>C2H2+CH4                      2.050e+13    0.000      0.00
C2H3+O2=>CH2O+H+CO                       7.070e+35   -7.320  11820.00
PLOG /     0.010 6.470e+36   -7.600  12640.01 /
PLOG /     0.010 1.180e+16   -1.280    515.30 /
PLOG /     0.100 6.290e+36   -7.600  12609.99 /
PLOG /     0.100 1.190e+16   -1.280    513.00 /
PLOG /     0.316 5.060e+36   -7.570  12490.01 /
PLOG /     0.316 1.260e+16   -1.290    520.60 /
PLOG /     1.000 7.070e+35   -7.320  11820.00 /
PLOG /     1.000 1.580e+16   -1.310    645.70 /
PLOG /     3.160 3.720e+36   -7.470  12459.99 /
PLOG /     3.160 2.440e+16   -1.360   1066.00 /
PLOG /    10.000 1.340e+36   -7.200  13430.00 /
PLOG /    10.000 6.640e+15   -1.180   1429.00 /
PLOG /    31.600 8.260e+20   -2.570   5578.01 /
PLOG /    31.600 2.660e+69  -19.230  14759.99 /
PLOG /   100.000 7.070e+33   -6.280  16000.00 /
PLOG /   100.000 1.090e+11    0.190    830.60 /
2C2H3<=>C3H3+CH3                         1.800e+13    0.000      0.00
C2H3+C2H2+M<=>NXC4H5+M                   3.288e+07  -12.910     72.42

C2H3+HCO<=>C2H3CHO                       1.800e+13    0.000      0.00
C2H3+O2<=>CO2+CH3                        7.250e+31   -6.700  10440.01
PLOG /     0.010 2.370e+35   -7.760  12630.00 /
PLOG /     0.010 6.270e+13   -1.160    406.30 /
PLOG /     0.100 1.730e+35   -7.720  12520.01 /
PLOG /     0.100 6.240e+13   -1.160    401.40 /
PLOG /     0.316 4.470e+34   -7.550  12140.01 /
PLOG /     0.316 6.120e+13   -1.160    397.00 /
PLOG /     1.000 7.250e+31   -6.700  10440.01 /
PLOG /     1.000 5.320e+13   -1.140    446.70 /
PLOG /     3.160 3.630e+35   -7.750  12830.00 /
PLOG /     3.160 1.450e+14   -1.260    987.70 /
PLOG /    10.000 2.090e+35   -7.530  14050.00 /
PLOG /    10.000 5.020e+13   -1.110   1409.00 /
PLOG /    31.600 3.840e+18   -2.440   5408.01 /
PLOG /    31.600 1.400e+70  -20.110  15430.00 /
PLOG /   100.000 1.210e+32   -6.320  16190.01 /
PLOG /   100.000 9.210e+08    0.250    855.30 /
C2H3+OH<=>C2H2+H2O                       5.000e+12    0.000      0.00
C2H3+O2<=>CO+CH3O                        1.030e+11   -0.330   -747.80
PLOG /     0.010 8.190e+18   -2.660   3201.00 /
PLOG /     0.010 1.290e+09    0.180  -1717.00 /
PLOG /     0.100 4.060e+14   -1.320    885.80 /
PLOG /     0.100 5.990e+11   -2.930  -9564.01 /
PLOG /     1.000 1.030e+11   -0.330   -747.80 /
PLOG /     1.000 5.770e+21   -3.540   4771.99 /
PLOG /     3.160 1.890e+12   -3.000  -8995.00 /
PLOG /     3.160 4.990e+15   -1.620   1849.00 /
PLOG /    10.000 1.930e+24   -5.630      1.80 /
PLOG /    10.000 9.330e+16   -1.960   3324.00 /
PLOG /    31.600 1.100e+18   -2.220   5178.01 /
PLOG /    31.600 1.020e+72  -20.690  15859.99 /
PLOG /   100.000 5.790e+32   -6.450  16809.99 /
PLOG /   100.000 1.100e+09    0.310   1024.00 /
SXCH2+C2H4<=>AXC3H5+H                    4.440e+35   -6.550  13900.00
PLOG /     0.010 8.200e+19   -2.060   1150.00 /
PLOG /     0.010 1.080e+07    1.620  -3174.59 /
PLOG /     0.100 2.270e+21   -2.440   2650.00 /
PLOG /     0.100 1.370e+05    2.150  -3799.21 /
PLOG /     1.000 4.440e+35   -6.550  13900.00 /
PLOG /     1.000 3.890e+14   -0.420   1237.60 /
PLOG /    10.000 1.180e+28   -4.090  14000.00 /
PLOG /    10.000 2.450e+10    0.670    750.93 /
PLOG /   100.000 6.510e+26   -3.580  18900.00 /
PLOG /   100.000 1.810e+02    2.970   -746.03 /
C2H4+O<=>CH3+HCO                         5.708e+17   -1.713   2887.67
C2H4+C2H3<=>AXC3H4+CH3                   1.370e+17   -1.590  22700.00
PLOG /     0.010 4.800e+07    0.890  13200.00 /
PLOG /     0.010 3.880e+09    0.590  22290.01 /
PLOG /     0.100 1.280e+32   -6.560  25030.12 /
PLOG /     0.100 2.740e+06    1.410  15120.00 /
PLOG /     1.000 1.370e+17   -1.590  22700.00 /
PLOG /     1.000 3.300e+143  -47.140  40859.94 /
PLOG /    10.000 3.210e+30   -5.300  34390.06 /
PLOG /    10.000 1.850e-04    4.410  16470.01 /
C2H4+C2H3<=>C2H5+C2H2                    1.940e+34   -7.030  33130.02
PLOG /     0.010 9.960e+12   -1.100  16600.00 /
PLOG /     0.010 4.500e+07    0.850  20100.00 /
PLOG /     0.100 1.550e+16   -1.800  20890.01 /
PLOG /     0.100 5.520e+28   -4.750  45400.10 /
PLOG /     1.000 1.940e+34   -7.030  33130.02 /
PLOG /     1.000 1.260e+08    0.780  21820.01 /
PLOG /    10.000 9.390e+33   -6.520  39809.99 /
PLOG /    10.000 1.800e+01    2.800  23159.99 /
PLOG /   100.000 7.560e+03    2.510  31520.08 /
PLOG /   100.000 3.380e-03    0.440  14180.00 /
C2H4+OH<=>C2H3+H2O                       1.310e-01    4.200   -860.42
C2H4+CH3<=>C2H3+CH4                      8.130e-05    4.417   8835.80
     DUPLICATE
C2H4(+M)=>C2H2+H2(+M)                    1.800e+13    0.000  76000.00

     LOW  /  1.500e+15    0.000  55440.01 /
!     FCCHECK/       0         0      0         0      1         0
     TROE/       1     1.00 10000000.00 10000000.00 /
C2H4+O2<=>C2H3+HO2                       4.220e+13    0.000  62100.86
C2H4+H<=>C2H3+H2                         6.189e+06    2.310  12829.83
C2H4+CH3<=>C2H3+CH4                      9.756e+02    2.947  15147.94
     DUPLICATE
C2H4+O<=>TXCH2+CH2O                      5.775e+06    1.991   2859.70
C2H4+OH<=>CH3+CH2O                       1.780e+05    1.680   2060.50
PLOG /     0.010 5.350e+00    2.920  -1732.70 /
PLOG /     0.025 3.190e+01    2.710  -1172.30 /
PLOG /     0.100 5.550e+02    2.360   -180.80 /
PLOG /     1.000 1.780e+05    1.680   2060.50 /
PLOG /    10.000 2.370e+09    0.560   6006.69 /
PLOG /   100.000 2.760e+13   -0.500  11455.09 /
SXCH2+C2H4<=>C2H3+CH3                    4.160e+24   -3.190   9759.99
PLOG /     0.010 1.770e+19   -1.940   6790.01 /
PLOG /     0.010 4.300e+12    0.190   -110.41 /
PLOG /     0.100 1.680e+19   -1.800   4309.99 /
PLOG /     0.100 2.260e+11    0.540     47.81 /
PLOG /     1.000 4.160e+24   -3.190   9759.99 /
PLOG /     1.000 4.920e+09    1.020    599.77 /
PLOG /    10.000 7.890e+24   -3.070  13900.00 /
PLOG /    10.000 1.470e+08    1.330   1228.40 /
PLOG /   100.000 7.360e+29   -4.280  23800.00 /
PLOG /   100.000 8.110e+10    0.550   5506.50 /
C2H4+O2=>CH3+CO2+H                       4.900e+12    0.420  75800.67
C2H4+O<=>CH2CHO+H                        3.005e+10    0.795   1952.44
C2H4+H(+M)<=>C2H5(+M)                    9.569e+08    1.463   1354.92
CH4/2.00/ C2H6/3.00/ AR/0.70/ CO/1.50/ CO2/2.00/ H2/2.00/ H2O/6.00/ 
     LOW  /  1.419e+39   -6.642   5768.88 /
     TROE/  -0.569      299     -9147     152.4 /
C2H5+O2<=>C2H4+HO2                       2.470e+09    0.510   1157.00
PLOG /     0.000 9.100e+00    2.870  -5099.00 /
PLOG /     0.000 1.180e+01    2.840  -5028.99 /
PLOG /     0.001 2.820e+01    2.730  -4779.99 /
PLOG /     0.003 1.100e+02    2.560  -4379.99 /
PLOG /     0.010 9.570e+02    2.300  -3734.99 /
PLOG /     0.030 1.320e+04    1.980  -2933.01 /
PLOG /     0.100 4.900e+05    1.540  -1790.00 /
PLOG /     0.300 2.410e+07    1.070   -497.70 /
PLOG /     1.000 2.470e+09    0.510   1157.00 /
PLOG /     3.000 1.360e+11    0.040   2789.01 /
PLOG /    10.000 3.130e+12   -0.310   4501.00 /
PLOG /    30.000 5.290e+12   -0.330   5728.01 /
PLOG /   100.000 1.890e+11    0.140   6372.99 /
C2H5+OH<=>C2H4+H2O                       7.941e+22   -2.989   3862.60
PLOG /     0.001 1.293e+19   -1.960    272.70 /
PLOG /     0.010 1.218e+19   -1.953    238.80 /
PLOG /     0.100 4.105e+19   -2.101    625.40 /
PLOG /     1.000 7.941e+22   -2.989   3862.60 /
PLOG /    10.000 2.793e+24   -3.329   7748.81 /
PLOG /   100.000 4.696e+18   -1.581   7999.21 /
C2H5+CH3<=>C2H4+CH4                      1.180e+04    2.450   2920.65
C2H5+O<=>C2H4+OH                         3.170e+12    0.030   -394.36
C2H5+HCO<=>C2H6+CO                       1.200e+14    0.000      0.00
C2H5+OH<=>CH3+CH2OH                      6.528e+21   -2.352   6022.71
PLOG /     0.001 9.202e+17   -1.299   2504.59 /
PLOG /     0.010 1.098e+18   -1.321   2569.41 /
PLOG /     0.100 5.737e+18   -1.518   3184.80 /
PLOG /     1.000 6.528e+21   -2.352   6022.71 /
PLOG /    10.000 1.880e+25   -3.249  10576.19 /
PLOG /   100.000 6.504e+22   -2.443  12646.61 /
C2H5+HO2<=>C2H6+O2                       3.000e+11    0.000      0.00
C2H5+H<=>C2H4+H2                         2.000e+12    0.000      0.00
C2H4+C2H5<=>C2H3+C2H6                    4.065e-05    4.417   8835.80
     DUPLICATE
C2H4+C2H5<=>C2H3+C2H6                    4.878e+02    2.947  15147.94
     DUPLICATE
C2H5+H(+M)<=>C2H6(+M)                    5.210e+17   -0.990   1580.07
CH4/2.00/ C2H6/3.00/ AR/0.70/ CO/1.50/ CO2/2.00/ H2/2.00/ H2O/6.00/ 
     LOW  /  1.990e+41   -7.080   6684.99 /
     TROE/   0.842      125      2219      6882 /
C2H6+O<=>C2H5+OH                         3.170e+01    3.800   3130.97