THERMO
   300.000  1000.000  5000.000
! CRECK-NOx
NO                000000N   1O   1          G    200.00   3500.00  800.00      1
 2.84621514E+00 2.06354046E-03-1.06904715E-06 2.65706521E-10-2.54948673E-14    2
 1.00671113E+04 8.61842850E+00 4.25026596E+00-4.95671364E-03 1.20939293E-05    3
-1.07034405E-08 3.40236358E-12 9.84246312E+03 2.15799980E+00                   4
N2O               000000N   2O   1          G    200.00   3500.00 1420.00      1
 4.85543722E+00 2.58052440E-03-9.33594196E-07 1.54088463E-10-9.24862860E-15    2
 8.05595827E+03-2.39060855E+00 2.51620681E+00 9.16990584E-03-7.89420840E-06    3
 3.42198245E-09-5.84582078E-13 8.72029970E+03 9.71509320E+00                   4
NO2               000000N   1O   2          G    200.00   3500.00 1800.00      1
 4.19813794E+00 3.78881378E-03-2.08226003E-06 5.53837970E-10-5.45690377E-14    2
 2.49824368E+03 3.49647574E+00 2.86592221E+00 6.74929318E-03-4.54932620E-06    3
 1.46756618E-09-1.81475734E-13 2.97784134E+03 1.07067052E+01                   4
HNO               000000N   1H   1O   1     G    200.00   3500.00  700.00      1
 2.88552845E+00 3.71507602E-03-9.89194577E-07 1.60505677E-10-1.61198693E-14    2
 1.18465422E+04 9.10108586E+00 4.47186928E+00-5.34972870E-03 1.84353870E-05    3
-1.83390958E-08 6.59088065E-12 1.16244545E+04 2.01371639E+00                   4
HNO2              000000N   1H   1O   2     G    200.00   3500.00  700.00      1
 1.72007297E+00 1.13464166E-02-6.67663344E-06 1.82835451E-09-1.88889111E-13    2
-6.26025905E+03 1.58192354E+01 3.09881792E+00 3.46787403E-03 1.02059578E-05    3
-1.42503038E-08 5.55348886E-12-6.45328334E+03 9.65935176E+00                   4
HONO              000000N   1H   1O   2     G    200.00   3500.00 1450.00      1
 5.99816567E+00 3.29505604E-03-1.07588927E-06 1.49768833E-10-6.76019596E-15    2
-1.16909495E+04-5.24156198E+00 2.71684795E+00 1.23469670E-02-1.04399351E-05    3
 4.45507726E-09-7.49054752E-13-1.07393674E+04 1.18081173E+01                   4
NH3               000000N   1H   3          G    200.00   3500.00  700.00      1
 2.51781806E+00 5.95384021E-03-2.00551774E-06 3.21049857E-10-1.88806103E-14    2
-6.46278677E+03 7.18902506E+00 4.05091142E+00-2.80669328E-03 1.67670540E-05    3
-1.75575899E-08 6.36634788E-12-6.67741985E+03 3.39551794E-01                   4
N                 000000N   1               G    200.00   3500.00 1800.00      1
 2.42215558E+00 1.52655402E-04-9.87414150E-08 2.32518158E-11-1.22034408E-15    2
 5.61344054E+04 4.62162566E+00 2.50554288E+00-3.26497078E-05 5.56795096E-08    3
-3.39411193E-11 6.72311912E-15 5.61043859E+04 4.17031620E+00                   4
NH                000000N   1H   1          G    200.00   3500.00 1670.00      1
 2.48662839E+00 1.81565444E-03-7.12541166E-07 1.51936873E-10-1.23899449E-14    2
 4.24864648E+04 7.43461547E+00 3.66298286E+00-1.00196106E-03 1.81825120E-06    3
-8.58359483E-10 1.38852024E-13 4.20935624E+04 1.15612276E+00                   4
NH2               000000N   1H   2          G    200.00   3500.00 1280.00      1
 2.55273412E+00 3.54675597E-03-1.12718085E-06 1.61534507E-10-6.97197513E-15    2
 2.15912601E+04 8.13032012E+00 4.10678625E+00-1.30965693E-03 4.56392802E-06    3
-2.80258469E-09 5.71957556E-13 2.11934228E+04 2.49283504E-01                   4
H2NO              000000N   1H   2O   1     G    200.00   3500.00  700.00      1
 2.72801504E+00 7.40936630E-03-3.46220929E-06 8.08344165E-10-7.54853119E-14    2
 6.86495538E+03 9.84388852E+00 3.66110547E+00 2.07742096E-03 7.96338786E-06    3
-1.00731769E-08 3.81077222E-12 6.73432272E+03 5.67507654E+00                   4
HCN               000000N   1H   1C   1     G    200.00   3500.00  780.00      1
 3.49786301E+00 3.76915269E-03-1.51027204E-06 3.01080815E-10-2.43629368E-14    2
 1.43955802E+04 3.23683733E+00 2.24572677E+00 1.01903642E-02-1.38587557E-05    3
 1.08553403E-08-3.40713842E-12 1.45909135E+04 8.96656341E+00                   4
HNC               000000N   1H   1C   1     G    200.00   3500.00  700.00      1
 4.41179651E+00 2.12707775E-03-4.71968004E-07 1.02353966E-12 7.69770113E-15    2
 2.16589078E+04-1.07356914E+00 2.73172541E+00 1.17274840E-02-2.10442672E-05    3
 1.95936894E-08-6.98968297E-12 2.18941178E+04 6.43256348E+00                   4
HNCO              000000N   1H   1O   1C   1G    200.00   3500.00 1050.00      1
 4.68274059E+00 5.27517046E-03-2.30255409E-06 4.91740802E-10-4.20405692E-14    2
-1.59709573E+04 2.61731790E-01 2.23902625E+00 1.45845584E-02-1.56016797E-05    3
 8.93563010E-09-2.05249040E-12-1.54577773E+04 1.21704701E+01                   4
HCNO              000000N   1H   1O   1C   1G    200.00   3500.00  780.00      1
 4.79767988E+00 6.41431462E-03-3.21741495E-06 7.84733929E-10-7.49876219E-14    2
 1.84217969E+04-2.20789647E+00 6.69823287E-01 2.75828100E-02-4.39260599E-05    3
 3.55784476E-08-1.12268189E-11 1.90657425E+04 1.66810126E+01                   4
CH3NO2            000000N   1H   3O   2C   1G    200.00   3500.00 1800.00      1
 5.69934620E+00 1.38065607E-02-6.43453311E-06 1.45264682E-09-1.30225206E-13    2
-1.27635731E+04-5.01015009E+00 5.58676790E-01 2.52302705E-02-1.59542913E-05    3
 4.97848318E-09-6.19924700E-13-1.09129321E+04 2.28122252E+01                   4
CN                000000N   1C   1          G    200.00   3500.00  890.00      1
 2.80498942E+00 1.99013249E-03-1.04863794E-06 2.95566162E-10-3.14165335E-14    2
 5.18669927E+04 7.89927658E+00 3.76469138E+00-2.32313475E-03 6.22091360E-06    3
-5.14979079E-09 1.49817812E-12 5.16961658E+04 3.38110710E+00                   4
NCO               000000N   1O   1C   1     G    200.00   3500.00 1630.00      1
 5.49723499E+00 1.70371834E-03-5.14809903E-07 5.30240356E-11-1.05670803E-16    2
 1.33777864E+04-4.53940223E+00 2.90100726E+00 8.07482934E-03-6.37779548E-06    3
 2.45097315E-09-3.67889277E-13 1.42241566E+04 9.25436079E+00                   4
H2CN              000000N   1H   2C   1     G    200.00   3500.00  700.00      1
 2.09516104E+00 9.19258718E-03-4.75958105E-06 1.19375090E-09-1.16674696E-13    2
 2.77113212E+04 1.25272169E+01 3.31830755E+00 2.20317853E-03 1.02177232E-05    3
-1.30703484E-08 4.97764648E-12 2.75400807E+04 7.06250773E+00                   4
CH2NH             000000N   1H   3C   1     G    200.00   3500.00  700.00      1
 5.80669263E-01 1.46544725E-02-7.73860026E-06 1.97648489E-09-1.95880938E-13    2
 9.93682813E+03 1.93649676E+01 3.61447523E+00-2.68156158E-03 2.94100442E-05    3
-3.34031765E-08 1.24397124E-11 9.51209529E+03 5.81069011E+00                   4
NCN               000000N   2C   1          G    200.00   3500.00 1540.00      1
 6.26178527E+00 8.14604744E-04-6.32168059E-08-5.68978567E-11 1.02757866E-14    2
 5.13388447E+04-9.55046103E+00 2.82367216E+00 9.74476868E-03-8.76142843E-06    3
 3.70856172E-09-6.01000119E-13 5.23977836E+04 8.52096412E+00                   4
HNCN              000000N   2H   1C   1     G    200.00   3500.00 1460.00      1
 5.71563435E+00 3.59039536E-03-1.19666899E-06 1.72409983E-10-8.44530525E-15    2
 3.58827351E+04-4.39973155E+00 3.04255635E+00 1.09138967E-02-8.72081421E-06    3
 3.60809273E-09-5.96747146E-13 3.66632738E+04 9.50791468E+00                   4
CH3CN             000000N   1H   3C   2     G    200.00   3500.00  700.00      1
 2.04918664E+00 1.63166629E-02-8.45703420E-06 2.11771927E-09-2.06450509E-13    2
 7.64801686E+03 1.30927474E+01 3.05185722E+00 1.05871167E-02 3.82056462E-06    3
-9.57523198E-09 3.96960351E-12 7.50764298E+03 8.61306899E+00                   4
CH2CN             000000N   1H   2C   2     G    200.00   3500.00 1380.00      1
 6.11859533E+00 6.12198158E-03-2.20713413E-06 3.59045101E-10-2.17707719E-14    2
 2.86608577E+04-6.42535446E+00 2.85897544E+00 1.55701552E-02-1.24768880E-05    3
 5.32027887E-09-9.20545006E-13 2.95605128E+04 1.03502971E+01                   4
HOCN              000000N   1H   1O   1C   1G    200.00   3500.00 1260.00      1
 5.08605507E+00 4.40745638E-03-1.67135017E-06 3.00184383E-10-2.12769828E-14    2
-3.69516510E+03-1.53122287E+00 2.95277827E+00 1.11797637E-02-9.73362079E-06    3
 4.56593603E-09-8.67656279E-13-3.15757934E+03 9.25362984E+00                   4
END
