THERMO
   300.000  1000.000  5000.000
! CRECK-C5H5N - 14
C5H5N             000000N   1H   5C   5     G    200.00   3500.00 1670.00      1
 1.48267817E+01 1.16940610E-02-2.71255627E-06 6.73794651E-11 3.04919610E-14    2
 9.59020019E+03-5.88760607E+01-3.87673990E+00 5.64929151E-02-4.29510479E-05    3
 1.61306496E-08-2.37418919E-12 1.58371764E+04 4.09492269E+01                   4
C5H4N             000000N   1H   4C   5     G    300.00   3500.00 1200.00      1
 4.01448127E+00 3.05044876E-02-1.70734065E-05 4.57650635E-09-4.75747804E-13    2
 3.93972028E+04 4.02774415E+00-4.61416183E+00 5.92666313E-02-5.30260861E-05    3
 2.45502172E-08-4.63693757E-12 4.14680772E+04 4.72291469E+01                   4
C5H5NO            000000N   1H   5O   1C   5G    300.00   3500.00 1210.00      1
 7.35479613E+00 2.90876831E-02-1.55808757E-05 3.98078705E-09-3.94557137E-13    2
 1.37527206E+04-1.40561969E+01-4.66377757E+00 6.88185053E-02-6.48339610E-05    3
 3.11174732E-08-6.00131047E-12 1.66612154E+04 4.62174586E+01                   4
C5H4NO            000000N   1H   4O   1C   5G    300.00   3500.00 1210.00      1
 7.35479613E+00 2.90876831E-02-1.55808757E-05 3.98078705E-09-3.94557137E-13    2
 1.44813106E+04-1.40561969E+01-4.66377757E+00 6.88185053E-02-6.48339610E-05    3
 3.11174732E-08-6.00131047E-12 1.73898054E+04 4.62174586E+01                   4
C5H4NO2           000000N   1H   4O   2C   5G    300.00   3500.00 1210.00      1
 7.35479613E+00 2.90876831E-02-1.55808757E-05 3.98078705E-09-3.94557137E-13    2
 1.44813106E+04-1.40561969E+01-4.66377757E+00 6.88185053E-02-6.48339610E-05    3
 3.11174732E-08-6.00131047E-12 1.73898054E+04 4.62174586E+01                   4
PYRLYL            000000N   1H   4C   4     G    300.00   3500.00 1710.00      1
 1.59928065E+01 4.27268406E-03-8.46010461E-07-4.43217665E-11 2.00499051E-14    2
 2.79279746E+04-6.47967006E+01-3.55348191E+00 4.99949961E-02-4.09533017E-05    3
 1.55920491E-08-2.26596922E-12 3.46128052E+04 3.99892962E+01                   4
bNC4H4CO          000000N   1H   4O   1C   5G    300.00   3500.00 1210.00      1
 7.35479613E+00 2.90876831E-02-1.55808757E-05 3.98078705E-09-3.94557137E-13    2
 1.44813106E+04-1.40561969E+01-4.66377757E+00 6.88185053E-02-6.48339610E-05    3
 3.11174732E-08-6.00131047E-12 1.73898054E+04 4.62174586E+01                   4
C3H3ONCO          000000N   1H   3O   2C   4G    300.00   3500.00 1210.00      1
 7.35479613E+00 2.90876831E-02-1.55808757E-05 3.98078705E-09-3.94557137E-13    2
 1.44813106E+04-1.40561969E+01-4.66377757E+00 6.88185053E-02-6.48339610E-05    3
 3.11174732E-08-6.00131047E-12 1.73898054E+04 4.62174586E+01                   4
C4H4CN            000000N   1H   4C   5     G    200.00   3500.00 1380.00      1
 1.19289008E+01 1.36080934E-02-4.78490623E-06 7.47955845E-10-4.27746659E-14    2
 5.55441120E+04-3.26058464E+01 1.84548244E+00 4.28353929E-02-3.65537100E-05    3
 1.60952041E-08-2.82307326E-12 5.83271355E+04 1.92885209E+01                   4
CHCHCN            000000N   1H   2C   3     G    200.00   3500.00 1320.00      1
 6.85861777E+00 7.74920266E-03-2.83619309E-06 4.73014718E-10-2.98345666E-14    2
 5.05394953E+04-9.37896883E+00 1.95161727E+00 2.26189012E-02-1.97335778E-05    3
 9.00704738E-09-1.64612863E-12 5.18349435E+04 1.56568112E+01                   4
C4H5N             000000N   1H   5C   4     G    300.00   3500.00 1270.00      1
 9.36117079E+00 1.72757987E-02-6.11652156E-06 1.06528002E-09-7.50815127E-14    2
 8.53338244E+03-2.79960862E+01-5.32461930E+00 6.35302556E-02-6.07477700E-05    3
 2.97431007E-08-5.72032180E-12 1.22635731E+04 4.63645138E+01                   4
PYRLNE            000000N   1H   5C   4     G    300.00   3500.00  800.00      1
-2.25123907E+00 4.24713628E-02-2.50033121E-05 6.55370520E-09-6.41454366E-13    2
 1.89830569E+04 3.46894502E+01 1.18066157E+00 2.53118596E-02 7.17075637E-06    3
-2.02580185E-08 7.73720930E-12 1.84339528E+04 1.88983199E+01                   4
CH2CHCN           000000N   1H   3C   3     G    200.00   3500.00 1690.00      1
 7.83484860E+00 8.38363684E-03-2.49828670E-06 2.86570364E-10-6.79796273E-15    2
 1.86233012E+04-1.71046378E+01 1.49763743E+00 2.33829532E-02-1.58112894E-05    3
 5.53824796E-09-7.83673347E-13 2.07652786E+04 1.67940584E+01                   4
C2N2              000000N   2C   2          G    200.00   3500.00  700.00      1
 5.66789416E+00 5.81681878E-03-2.89262849E-06 6.98368845E-10-6.54524514E-14    2
 3.52445641E+04-4.84945634E+00 2.74684248E+00 2.25085427E-02-3.86606082E-05    3
 3.47631115E-08-1.22314320E-11 3.56535113E+04 8.20106354E+00                   4
END
