THERMO ALL
	300.00  1000.00  5000.000
! Glarborg - 21
N2H2                    H   2N   2          G   298.150  2000.000 1000.00      1
 2.38388380E+00 6.63619559E-03-1.81669068E-06-1.19497031E-10 9.31659255E-14    2
 2.34207532E+04 1.06091658E+01 4.14915878E+00-4.82013543E-03 2.19606525E-05    3
-2.03662902E-08 6.25367200E-12 2.32874597E+04 3.19154222E+00                   4
NNH                     H   1N   2          G   298.150  2000.000 1000.00      1
 2.78024159E+00 4.51114118E-03-1.98147075E-06 3.61161241E-10-1.55679242E-14    2
 2.93473063E+04 9.91752869E+00 3.86231284E+00-4.41898698E-04 6.38522141E-06    3
-5.84138844E-09 1.69125822E-12 2.91621298E+04 4.85334915E+00                   4
NH2                     H   2N   1          G   298.150  2000.000 1000.00      1
 3.80751460E+00 1.74138848E-04 2.06281679E-06-1.18308148E-09 2.00814234E-13    2
 2.12757238E+04 1.57634407E+00 4.02590054E+00-9.53251946E-04 4.13467348E-06    3
-2.81816628E-09 6.73047183E-13 2.12447390E+04 5.86219857E-01                   4
NH                      H   1N   1          G   298.150  2000.000 1000.00      1
 3.38393047E+00-3.04401048E-04 1.07871576E-06-5.39749068E-10 8.56574985E-14    2
 4.18557586E+04 2.60065696E+00 3.49138447E+00 2.48105072E-04-1.22352658E-06    3
 1.97740127E-09-7.89210613E-13 4.17851517E+04 1.83667301E+00                   4
HNO               121286H   1N   1O   1     G  0300.00   5000.00  1000.00      1
 0.03615144E+02 0.03212486E-01-0.01260337E-04 0.02267298E-08-0.01536236E-12    2
 0.01066191E+06 0.04810264E+02 0.02784403E+02 0.06609646E-01-0.09300223E-04    3
 0.09437980E-07-0.03753146E-10 0.01091878E+06 0.09035629E+02                   4
HONO               31787H   1N   1O   2     G  0300.00   5000.00  1000.00      1
 0.05486893E+02 0.04218065E-01-0.01649143E-04 0.02971877E-08-0.02021148E-12    2
-0.01126865E+06-0.02997002E+02 0.02290413E+02 0.01409922E+00-0.01367872E-03    3
 0.07498780E-07-0.01876905E-10-0.01043195E+06 0.01328077E+03                   4
N                 120186N   1               G  0300.00   5000.00  1000.00      1
 0.02450268E+02 0.01066146E-02-0.07465337E-06 0.01879652E-09-0.01025984E-13    2
 0.05611604E+06 0.04448758E+02 0.02503071E+02-0.02180018E-03 0.05420529E-06    3
-0.05647560E-09 0.02099904E-12 0.05609890E+06 0.04167566E+02                   4
H2NO              102290H   2N   1O   1     G  0300.00   4000.00  1500.00      1
 0.05673346E+02 0.02298837E-01-0.01774446E-05-0.01103482E-08 0.01859762E-12    2
 0.05569325E+05-0.06153540E+02 0.02530590E+02 0.08596035E-01-0.05471030E-04    3
 0.02276249E-07-0.04648073E-11 0.06868030E+05 0.01126651E+03                   4
N2O               121286N   2O   1          G   300.00   5000.00  1000.00      1
 0.04718977E+02 0.02873714E-01-0.01197496E-04 0.02250552E-08-0.01575337E-12    2
 0.08165811E+05-0.01657250E+02 0.02543058E+02 0.09492193E-01-0.09792775E-04    3
 0.06263845E-07-0.01901826E-10 0.08765100E+05 0.09511222E+02                   4
NH3               121386N   1H   3          G  0300.00   5000.00  1000.00      1
 0.02461904E+02 0.06059166E-01-0.02004977E-04 0.03136003E-08-0.01938317E-12    2
-0.06493270E+05 0.07472097E+02 0.02204352E+02 0.01011476E+00-0.01465265E-03    3
 0.01447235E-06-0.05328509E-10-0.06525488E+05 0.08127138E+02                   4
NO                121286N   1O   1          G   300.00   5000.00  1000.00      1
 0.03245435E+02 0.01269138E-01-0.05015890E-05 0.09169283E-09-0.06275419E-13    2
 0.09800840E+05 0.06417294E+02 0.03376542E+02 0.01253063E-01-0.03302751E-04    3
 0.05217810E-07-0.02446263E-10 0.09817961E+05 0.05829590E+02                   4
NO2               121286N   1O   2          G   300.00   5000.00  1000.00      1
 0.04682859E+02 0.02462429E-01-0.01042259E-04 0.01976902E-08-0.01391717E-12    2
 0.02261292E+05 0.09885985E+01 0.02670600E+02 0.07838501E-01-0.08063865E-04    3
 0.06161715E-07-0.02320150E-10 0.02896291E+05 0.01161207E+03                   4
N2H3  Hydrazine   A05/05H  3.N  2.   0.   0.G   200.000  6000.000 1000.        1
 4.04483566E+00 7.31130186E-03-2.47625799E-06 3.83733021E-10-2.23107573E-14    2
 2.48098603E+04 2.88423392E+00 3.42125505E+00 1.34901590E-03 2.23459071E-05    3
-2.99727732E-08 1.20978970E-11 2.53056139E+04 7.83176309E+00 2.65295249E+04    4
HCN               ATcT3EC   1H   1N   1    0G    200.00   6000.00 1000.00      1
 3.79525127E+00 3.16330147E-03-1.07316905E-06 1.67851828E-10-9.83948026E-15    2
 1.42249758E+04 1.61357326E+00 2.10571670E+00 1.11841419E-02-1.62402411E-05    3
 1.31663215E-08-4.17254301E-12 1.45427041E+04 9.55501287E+00                   4
HNC               ATcT3EC   1H   1N   1    0G    200.00   6000.00 1000.00      1
 4.17272154E+00 2.66569898E-03-8.92300150E-07 1.37331005E-10-7.95545718E-15    2
 2.17977474E+04 2.15196203E-01 2.36665269E+00 1.49943353E-02-3.03605651E-05    3
 2.99845678E-08-1.09094949E-11 2.19807517E+04 7.87287988E+00                   4
CN                ATcT3EC   1N   1    0    0G    200.00   6000.00 1000.00      1
 3.73483746E+00 5.83996018E-05 2.90443997E-07-6.74403810E-11 4.33381923E-15    2
 5.17018679E+04 2.85162570E+00 3.62920077E+00-1.07172764E-03 2.42398215E-06    3
-5.85516328E-10-3.75364456E-13 5.18668474E+04 3.91231279E+00                   4
HNCO Isocyanic AciA 5/05H  1.N  1.C  1.O  1.G   200.000  6000.000 1000.        1
 5.30045051E+00 4.02250821E-03-1.40962280E-06 2.23855342E-10-1.32499966E-14    2
-1.61995274E+04-3.11770684E+00 2.24009031E+00 1.45600497E-02-1.54352330E-05    3
 8.55535028E-09-1.79631611E-12-1.54589951E+04 1.21663775E+01                   4
NCO  (NCO)        A 5/05N  1.C  1.O  1.   0.G   200.000  6000.000 1000.        1
 5.08064474E+00 2.37443587E-03-9.07098904E-07 1.52286713E-10-9.31009234E-15    2
 1.35781204E+04-2.15734434E+00 2.77405177E+00 9.24523481E-03-9.91773586E-06    3
 6.68461303E-09-2.09520542E-12 1.42369570E+04 9.75458670E+00                   4
NCN               ATcT3EC   1N   2    0    0G    200.00   6000.00 1000.00      1
 5.65711708E+00 1.64211333E-03-6.37923438E-07 1.11209213E-10-6.99328410E-15    2
 5.22097079E+04-6.14049950E+00 3.00703195E+00 8.38874126E-03-6.90466542E-06    3
 2.84868816E-09-5.74273041E-13 5.30044793E+04 7.78171011E+00                   4
CH3NH2            T09/09C  1.H  5.N  1.   0.G   200.000  6000.000 1000.        1
 3.78609899E+00 1.26969570E-02-4.46778553E-06 7.11021516E-10-4.21332621E-14    2
-4.38100060E+03 1.86268606E+00 4.65718252E+00-7.37953092E-03 5.45297099E-05    3
-6.24993857E-08 2.33761829E-11-3.76073340E+03 1.63875112E+00                   4
H2CN  H2C=N*      T 11/1C  1.H  2.N  1.   0.G   200.000  6000.000 1000.        1
 3.80315578E+00 5.47197362E-03-1.95314875E-06 3.13362403E-10-1.86249384E-14    2
 2.71302747E+04 3.31759436E+00 3.97799555E+00-3.43275801E-03 2.59134260E-05    3
-3.04692171E-08 1.16272717E-11 2.74854081E+04 4.43067396E+00                   4
END
