ELEMENTS
C  O  H  AR N  HE 
END
SPECIES
CO                HO2               C2H5O             CH3O2             H2O               TXC5H5O           C2H4              C3H2              
AXC3H5            CH                CH3CO             C5H8              O2                CH3CHO            SXCH2             SC3H5OH           
C2H3OH            O                 HOCO              C                 AXC3H4            C2H5              C2H5CHO           ACETOL            
A1O               C3H4O3            CH2CO             C4H71X3           C5H4O2            H2O2              C6H10O5           IC5H9OH           
CH3CHCO           C6H5OCH3          C4H3O             CH3COCH2          HCO               CH3OH             H                 IXC4H8            
C4H6              CHOCHO            CH3COOH           C2H2              A1CH2O            C3H6O2            C6H7              C5H6              
C4H4              TXCH2             HOCHO             CH2CCHCH2CHCH2    CO2               A1X               CVCCJCVC          C6H5CYCH2O        
C6H6O3            PC2H4OH           CH3               CH3O              A1                CC4H4O            C6H6O             HCCO              
CH2CH2CHO         C5H4CH2           H2                CH2CHO            C5H4CH3           CH3COCH3          A1CO              C6H8O4            
CH4               C5H5              C2H3              C2H3CHO           C3H3              A1OH              A1CHO             CH3CHOH           
A1CH3             C3H6              CH2O              CH3CHCHO          C2H5O2            C2H5OH            OC6H4O            AR                
CVCCVCCJVO        SXC3H5            IC5H10            C5H5CH2           CH2OH             PXC3H4            IXC4H7            C2H5CO            
NXC4H5            C5H5CH3           C2H6              C6H5OCH2          N2                OH                HE                OC8H7OOH          
NO                N2O               NO2               HNO               HNO2              HONO              NH3               N                 
NH                NH2               H2NO              HCN               HNC               HNCO              HCNO              CH3NO2            
CN                NCO               H2CN              CH2NH             NCN               HNCN              CH3CN             CH2CN             
HOCN              C5H5N             C5H4N             C5H5NO            C5H4NO            C5H4NO2           PYRLYL            BNC4H4CO          
C3H3ONCO          C4H4CN            CHCHCN            C4H5N             PYRLNE            CH2CHCN           C2N2              
END
REACTIONS
H2+AR<=>2H+AR                            5.840e+18   -1.100 104380.02
H2+M<=>2H+M                              4.577e+19   -1.400 104380.02
CO/1.90/ H2O/12.00/ CO2/3.80/ H2/2.50/ AR/0.00/ 
2O+M<=>O2+M                              6.165e+15   -0.500      0.00
CO/1.90/ H2O/12.00/ CO2/3.80/ H2/2.50/ AR/0.00/ 
O+H+M<=>OH+M                             4.714e+18   -1.000      0.00
CO/1.90/ H2O/12.00/ CO2/3.80/ H2/2.50/ AR/0.75/ 
O+H2<=>H+OH                              3.818e+12    0.000   7947.90
     DUPLICATE
O+H2<=>H+OH                              8.792e+14    0.000  19169.93
     DUPLICATE
2O+AR<=>O2+AR                            1.886e+13    0.000  -1788.00
H2+OH<=>H2O+H                            2.160e+08    1.510   3429.97
2OH<=>O+H2O                              3.340e+04    2.420  -1929.97
H2O+M<=>H+OH+M                           6.064e+27   -3.322 120789.91
CO/1.90/ H2O/0.00/ O2/1.50/ CO2/3.80/ H2/3.00/ 
2H2O<=>H+OH+H2O                          1.006e+26   -2.440 120179.97
H+O2(+M)<=>HO2(+M)                       4.651e+12    0.440      0.00
CO/1.90/ H2O/14.00/ O2/0.78/ CO2/3.80/ H2/2.00/ AR/0.67/ 
     LOW  /  6.366e+20   -1.720    524.86 /
!     FCCHECK/     0.5     1e-30    0.5     1e+30      0         0
     TROE/     0.5    1e-30     1e+30        /
H+O2<=>O+OH                              1.040e+14    0.000  15286.09
OH+HO2<=>H2O+O2                          1.930e+20   -2.490    584.13
     DUPLICATE
OH+HO2<=>H2O+O2                          1.210e+09    1.240  -1307.60
     DUPLICATE
HO2+H<=>2OH                              7.079e+13    0.000    294.93
HO2+H<=>H2+O2                            2.750e+06    2.090  -1451.00
HO2+O<=>O2+OH                            2.850e+10    1.000   -723.95
2HO2<=>H2O2+O2                           1.214e+10    0.422  -1480.40
     DUPLICATE
2HO2<=>H2O2+O2                           1.688e+16   -0.681  12931.64
     DUPLICATE
H2O2+H<=>H2O+OH                          2.410e+13    0.000   3969.89
H2O2+H<=>HO2+H2                          4.820e+13    0.000   7950.05
H2O2+O<=>OH+HO2                          9.550e+06    2.000   3969.89
H2O2(+M)<=>2OH(+M)                       2.000e+12    0.900  48749.00
CO/2.80/ H2O/7.50/ O2/1.20/ H2O2/7.70/ CO2/1.60/ H2/3.70/ N2/1.50/ HE/0.65/ 
     LOW  /  2.490e+24   -2.300  48750.00 /
!     FCCHECK/    0.57     1e-30   0.43     1e+30      0         0
     TROE/    0.43    1e-30     1e+30        /
H2O2+OH<=>HO2+H2O                        1.740e+12    0.000    318.12
     DUPLICATE
H2O2+OH<=>HO2+H2O                        7.590e+13    0.000   7270.08
     DUPLICATE
C+OH<=>CO+H                              5.000e+13    0.000      0.00
C+O2<=>CO+O                              5.800e+13    0.000    576.00
CH+O2<=>HCO+O                            6.710e+13    0.000      0.00
CH+O<=>CO+H                              5.700e+13    0.000      0.00
CH+OH<=>HCO+H                            3.000e+13    0.000      0.00
CH+H2O<=>CH2O+H                          5.710e+12    0.000   -755.26
CH+H<=>C+H2                              1.650e+14    0.000      0.00
CH+H2<=>TXCH2+H                          1.080e+14    0.000   3109.47
CH+H2(+M)<=>CH3(+M)                      1.970e+12    0.430   -370.46
CO/1.75/ H2O/12.00/ CO2/3.60/ H2/2.00/ CH4/2.00/ AR/0.70/ C2H6/3.00/ 
     LOW  /  4.820e+25   -2.800    590.34 /
     TROE/   0.578      122      2535      9365 /
SXCH2+H<=>CH+H2                          3.000e+13    0.000      0.00
SXCH2+AR<=>TXCH2+AR                      9.000e+12    0.000    599.90
SXCH2+O<=>CO+H2                          1.500e+13    0.000      0.00
SXCH2+OH<=>CH2O+H                        3.000e+13    0.000      0.00
SXCH2+O<=>HCO+H                          1.500e+13    0.000      0.00
SXCH2+O2<=>H+OH+CO                       2.800e+13    0.000      0.00
SXCH2+H2O<=>TXCH2+H2O                    3.000e+13    0.000      0.00
SXCH2+H2O=>H2+CH2O                       6.820e+10    0.250   -934.51
SXCH2+O2<=>CO+H2O                        1.200e+13    0.000      0.00
SXCH2+H2<=>CH3+H                         7.000e+13    0.000      0.00
TXCH2+OH<=>CH+H2O                        1.130e+07    2.000   2999.52
TXCH2+CH<=>C2H2+H                        4.000e+13    0.000      0.00
TXCH2+O2<=>CH2O+O                        2.400e+12    0.000   1500.96
TXCH2+HO2<=>CH2O+OH                      2.000e+13    0.000      0.00
2TXCH2=>C2H2+2H                          2.000e+14    0.000  10989.48
TXCH2+O2=>OH+H+CO                        5.000e+12    0.000   1500.96
TXCH2+H(+M)<=>CH3(+M)                    6.000e+14    0.000      0.00
CO/1.75/ H2O/12.00/ CO2/3.60/ H2/2.00/ CH4/2.00/ AR/0.70/ C2H6/3.00/ 
     LOW  /  1.040e+26   -2.760   1598.95 /
     TROE/   0.562       91      5836      8552 /
TXCH2+OH<=>CH2O+H                        2.000e+13    0.000      0.00
2TXCH2<=>C2H2+H2                         1.600e+15    0.000  11943.12
TXCH2+H2<=>H+CH3                         5.000e+05    2.000   7229.92
TXCH2+O<=>HCO+H                          8.000e+13    0.000      0.00
TXCH2+O2=>CO2+2H                         5.800e+12    0.000   1500.96
CH3+SXCH2<=>C2H4+H                       2.000e+13    0.000      0.00
CH3+H2O2<=>CH4+HO2                       2.450e+04    2.470   5179.25
2CH3(+M)<=>C2H6(+M)                      2.277e+15   -0.690    174.95
CO/2.00/ H2O/5.00/ CO2/3.00/ 
     LOW  /  8.054e+31   -3.750    981.60 /
     TROE/       0      570     1e+30     1e+30 /
CH3+OH<=>SXCH2+H2O                       5.282e+17   -1.518   1772.00
PLOG /     0.010 4.936e+14   -0.669   -445.80 /
PLOG /     0.100 1.207e+15   -0.778   -175.60 /
PLOG /     1.000 5.282e+17   -1.518   1772.00 /
PLOG /    10.000 4.788e+23   -3.155   7003.01 /
PLOG /   100.000 8.433e+19   -1.962   8244.00 /
CH3+OH<=>TXCH2+H2O                       4.293e+04    2.568   3997.85
CH3+O2(+M)<=>CH3O2(+M)                   7.812e+09    0.900      0.00

     LOW  /  6.850e+24   -3.000      0.00 /
     TROE/     0.6     1000        70      1700 /
CH3+OH<=>CH2O+H2                         1.650e+07    0.973  -2010.00
PLOG /     0.010 3.502e+05    1.441  -3244.00 /
PLOG /     0.100 8.854e+05    1.327  -2975.00 /
PLOG /     1.000 1.650e+07    0.973  -2010.00 /
PLOG /    10.000 5.374e+09    0.287    280.00 /
PLOG /   100.000 9.494e+18   -2.199   9769.00 /
CH3+HO2<=>CH4+O2                         1.200e+05    2.227  -3021.03
CH3+CH<=>C2H3+H                          3.000e+13    0.000      0.00
CH3+O<=>H+H2+CO                          8.310e+12    0.050   -135.99
CH3+HO2<=>CH3O+OH                        1.070e+12    0.273   -693.12
2CH3<=>H+C2H5                            3.100e+14   -0.362  13372.49
PLOG /     0.010 4.740e+12    0.105  10664.29 /
PLOG /     0.100 2.570e+13   -0.096  11406.09 /
PLOG /     1.000 3.100e+14   -0.362  13372.49 /
PLOG /    10.000 2.150e+10    0.885  13532.51 /
PLOG /   100.000 1.032e+02    3.230  11236.09 /
CH3+OH<=>CH2OH+H                         3.046e+10    0.833   3570.01
PLOG /     0.010 1.054e+10    0.965   3209.99 /
PLOG /     0.100 1.175e+10    0.950   3250.00 /
PLOG /     1.000 3.046e+10    0.833   3570.01 /
PLOG /    10.000 9.912e+12    0.134   5640.01 /
PLOG /   100.000 2.334e+14   -0.186   8600.00 /
CH3+H(+M)<=>CH4(+M)                      6.920e+13    0.180      0.00
CO/1.50/ H2O/6.00/ CO2/2.00/ H2/2.00/ CH4/5.00/ AR/0.70/ C2H6/3.00/ 
     LOW  /  3.470e+38   -6.300   5074.09 /
     TROE/   0.783       74      2941      6964 /
CH3+C<=>C2H2+H                           5.000e+13    0.000      0.00
CH3+O2<=>CH2O+OH                         2.641e+00    3.283   8104.92
CH3+TXCH2<=>C2H4+H                       2.000e+13    0.000      0.00
CH3+O2<=>CH3O+O                          7.546e+12    0.000  28320.03
CH3+OH<=>H+CH3O                          1.230e+09    1.011  11950.00
PLOG /     0.010 1.186e+09    1.016  11940.01 /
PLOG /     0.100 1.188e+09    1.016  11940.01 /
PLOG /     1.000 1.230e+09    1.011  11950.00 /
PLOG /    10.000 1.798e+09    0.965  12059.99 /
PLOG /   100.000 5.242e+10    0.551  13070.00 /
CH3+O<=>CH2O+H                           5.540e+13    0.050   -135.99
CH4+H<=>CH3+H2                           6.600e+08    1.620  10841.30
CH4+TXCH2<=>2CH3                         2.460e+06    2.000   8269.60
CH4+OH<=>CH3+H2O                         1.000e+08    1.600   3119.03
CH4+O<=>CH3+OH                           1.020e+09    1.500   8599.43
CH4+CH<=>C2H4+H                          6.000e+13    0.000      0.00
CH4+SXCH2<=>2CH3                         1.600e+13    0.000   -571.22
CO+O(+M)<=>CO2(+M)                       1.800e+10    0.000   2385.28
CO/1.75/ H2O/12.00/ CO2/3.60/ H2/2.00/ AR/0.70/ 
     LOW  /  1.550e+24   -2.790   4192.16 /
!     FCCHECK/       0         0      0         0      1         0
     TROE/       1     1.00 10000000.00 10000000.00 /
CO+O2<=>CO2+O                            1.050e+12    0.000  47700.05
CO+OH<=>CO2+H                            8.700e+05    1.730   -685.00
PLOG /     0.013 2.100e+05    1.900  -1064.00 /
PLOG /     0.132 2.500e+05    1.880  -1043.00 /
PLOG /     1.315 8.700e+05    1.730   -685.00 /
PLOG /    13.158 6.800e+06    1.480     48.00 /
PLOG /   131.580 2.300e+07    1.350    974.00 /
TXCH2+CO(+M)<=>CH2CO(+M)                 8.100e+11    0.500   4510.04
CO/1.75/ H2O/12.00/ CO2/3.60/ H2/2.00/ CH4/2.00/ AR/0.70/ C2H6/3.00/ 
     LOW  /  2.690e+33   -5.110   7096.08 /
     TROE/  0.5907      275      1226      5185 /
CH+CO(+M)<=>HCCO(+M)                     5.000e+13    0.000      0.00
CO/1.75/ H2O/12.00/ CO2/3.60/ H2/2.00/ CH4/2.00/ AR/0.70/ C2H6/3.00/ 
     LOW  /  2.690e+28   -3.740   1935.95 /
     TROE/  0.5757      237      1652      5069 /
SXCH2+CO<=>TXCH2+CO                      9.000e+12    0.000      0.00
CO+HO2<=>CO2+OH                          1.570e+05    2.180  17942.64
CO+H2O2<=>HOCO+OH                        3.600e+04    2.500  28659.90
CO+OH<=>HOCO                             2.600e+20   -3.500   1309.00
PLOG /     0.013 1.700e+15   -2.680    859.00 /
PLOG /     0.132 5.900e+18   -3.350    887.00 /
PLOG /     1.316 2.600e+20   -3.500   1309.00 /
PLOG /    13.158 7.100e+20   -3.320   1763.00 /
PLOG /   131.580 1.100e+20   -2.780   2056.00 /
CO+H2(+M)<=>CH2O(+M)                     4.300e+07    1.500  79600.90
CO/1.75/ H2O/12.00/ CO2/3.60/ H2/2.00/ CH4/2.00/ AR/0.70/ C2H6/3.00/ 
     LOW  /  5.070e+27   -3.420  84349.90 /
     TROE/   0.932      197      1540     10300 /
HCO+O2<=>CO+HO2                          1.200e+10    0.807   -727.06
2HCO<=>CO+CH2O                           2.700e+13    0.000      0.00
HCO+OH<=>CO+H2O                          3.011e+13    0.000      0.00
HCO+M<=>CO+H+M                           4.748e+11    0.659  14873.80
CO/1.75/ H2O/0.00/ CO2/3.60/ H2/2.00/ CH4/2.00/ C2H6/3.00/ 
HCO+H<=>CO+H2                            1.200e+14    0.000      0.00
HCO+CH3<=>CO+CH4                         2.650e+13    0.000      0.00
HCO+H(+M)<=>CH2O(+M)                     1.090e+12    0.480   -260.52
CO/1.75/ H2O/12.00/ CO2/3.60/ H2/2.00/ CH4/2.00/ AR/0.70/ C2H6/3.00/ 
     LOW  /  2.470e+24   -2.570    425.43 /
     TROE/  0.7824      271      2755      6570 /
HCO+O<=>CO+OH                            3.020e+13    0.000      0.00
HCO+O<=>CO2+H                            3.000e+13    0.000      0.00
CH2O+OH<=>HCO+H2O                        3.430e+09    1.180   -446.94
CH2O+H<=>HCO+H2                          5.740e+07    1.900   2741.40
CH2O+HO2<=>HCO+H2O2                      5.600e+06    2.000  12000.48
CH2O+O2<=>HCO+HO2                        1.000e+14    0.000  40000.00
CH2O+CH<=>CH2CO+H                        9.460e+13    0.000   -516.25
CH3+CH2O<=>CH4+HCO                       3.320e+03    2.810   5860.42
CH2O+O<=>HCO+OH                          3.900e+13    0.000   3539.67
CH2OH+HO2<=>CH2O+H2O2                    1.200e+13    0.000      0.00
2CH2OH<=>CH3OH+CH2O                      3.000e+12    0.000      0.00
CH2OH+O<=>CH2O+OH                        1.000e+13    0.000      0.00
CH2OH(+M)<=>CH2O+H(+M)                   7.370e+10    0.811  39585.10
CO/1.50/ H2O/6.00/ CH3OH/3.00/ CO2/2.00/ H2/2.00/ CH4/2.00/ CH2O/2.50/ AR/0.85/ 
C2H6/3.00/ 
     LOW  /  3.500e+21   -1.990  24000.00 /
     TROE/   0.844      900         1      3315 /
CH2OH+OH<=>CH2O+H2O                      5.000e+12    0.000      0.00
CH2OH+HCO<=>2CH2O                        1.500e+13    0.000      0.00
CH2OH+H<=>CH2O+H2                        2.000e+13    0.000      0.00
CH2OH+O2<=>CH2O+HO2                      1.800e+13    0.000    901.05
CH2OH+HCO<=>CH3OH+CO                     1.000e+13    0.000      0.00
CH2OH+H<=>SXCH2+H2O                      3.280e+13   -0.090    609.47
CH3O+H<=>CH2O+H2                         2.000e+13    0.000      0.00
CH3O(+M)<=>CH2O+H(+M)                    1.130e+10    1.210  24084.80
CO/1.50/ H2O/6.00/ CH3OH/3.00/ CO2/2.00/ H2/2.00/ CH4/2.00/ AR/0.85/ C2H6/3.00/ 
HE/0.67/ 
     LOW  /  6.022e+16   -0.547  18023.90 /
     TROE/   0.341       28      1000      2339 /
CH3O+H<=>CH2OH+H                         4.150e+07    1.630   1924.00
CH3O+HO2<=>CH2O+H2O2                     3.000e+11    0.000      0.00
CH3O+O2<=>CH2O+HO2                       2.170e+10    0.000   1748.80
CH3O+H<=>SXCH2+H2O                       2.620e+14   -0.230   1070.75
CH3O+OH<=>CH2O+H2O                       3.619e+02    2.498   1889.34
CH3O+O<=>CH2O+OH                         1.000e+13    0.000      0.00
CH3OH+HCO<=>CH2OH+CH2O                   9.635e+03    2.900  13109.94
CH3OH(+M)<=>CH3+OH(+M)                   2.084e+18   -0.615  92540.60

     LOW  /  1.500e+43   -6.995  97992.11 /
     TROE/  0.7656    59.51      1910      9374 /
CH3OH+O<=>CH2OH+OH                       3.880e+05    2.500   3099.90
CH3OH+H<=>CH2OH+H2                       1.700e+07    2.100   4870.94
CH3OH+O2<=>CH2OH+HO2                     2.050e+13    0.000  44900.10
CH3OH+CH3<=>CH2OH+CH4                    3.000e+07    1.500   9940.25
CH3OH(+M)<=>CH2OH+H(+M)                  7.896e-03    5.038  84467.50

     LOW  /  3.390e+42   -7.244 105230.40 /
     TROE/  0.6843    41490     37050      3980 /
CH3OH+OH<=>CH2OH+H2O                     1.440e+06    2.000   -841.30
SXCH2+CO2<=>CH2O+CO                      1.400e+13    0.000      0.00
CH+CO2<=>HCO+CO                          1.900e+14    0.000  15791.11
SXCH2+CO2<=>TXCH2+CO2                    7.000e+12    0.000      0.00
HOCO+OH<=>CO2+H2O                        4.560e+12    0.000    -88.91
     DUPLICATE
HOCO+OH<=>CO2+H2O                        9.540e+06    2.000    -88.91
     DUPLICATE
HOCO+HO2<=>CO2+H2O2                      3.930e+13    0.000      0.00
HOCO<=>CO2+H                             1.069e+36   -8.107  29064.05
PLOG /     0.001 4.758e+18   -3.817  17676.00 /
PLOG /     0.003 2.225e+20   -4.149  19037.00 /
PLOG /     0.010 7.564e+21   -4.434  20325.00 /
PLOG /     0.030 9.107e+24   -5.189  22419.00 /
PLOG /     0.099 3.144e+29   -6.376  25233.03 /
PLOG /     0.296 1.150e+32   -7.037  26662.05 /
PLOG /     0.987 1.069e+36   -8.107  29064.05 /
PLOG /     2.961 2.438e+36   -8.153  29336.04 /
PLOG /     9.869 6.663e+35   -7.919  29217.02 /
PLOG /    29.607 1.723e+38   -8.506  31272.95 /
PLOG /    98.690 3.007e+41   -9.290  33966.06 /
PLOG /   296.070 6.767e+36   -7.832  31613.05 /
PLOG /   986.900 1.897e+38   -8.047  34239.96 /
HOCO+CH3<=>CH2CO+H2O                     2.130e+13    0.000      0.00
HOCO+H<=>CO+H2O                          6.000e+15   -0.525   2125.00
HOCO+O2<=>CO2+HO2                        4.000e+09    1.000      0.00
HOCO+H<=>CO2+H2                          3.100e+17   -1.347    554.97
HOCO+O<=>CO2+OH                          8.670e+12    0.000      0.00
HOCO+CH3<=>CO2+CH4                       1.360e+13    0.000      0.00
HOCHO+CH3=>CH4+CO+OH                     3.900e-07    5.800   2200.05
CH3O2+H<=>CH3O+OH                        9.600e+13    0.000      0.00
CH3O2+CH3<=>2CH3O                        5.080e+12    0.000  -1411.09
2CH3O2=>O2+2CH3O                         1.400e+16   -1.610   1859.94
CH3O2+O<=>CH3O+O2                        3.600e+13    0.000      0.00
C2H2+HO2<=>CO+CH3O                       8.940e+69  -15.850 102500.00
PLOG /     0.010 3.540e+11    0.000  49510.04 /
PLOG /     0.010 2.890e+04    1.230   9903.01 /
PLOG /     0.100 2.780e+08    0.010  11920.00 /
PLOG /     0.100 9.670e-07    4.150   5172.99 /
PLOG /     0.316 8.060e+07    0.180  11650.00 /
PLOG /     0.316 1.840e-08    4.620   4516.99 /
PLOG /     1.000 8.940e+69  -15.850 102500.00 /
PLOG /     1.000 5.380e+05    0.860  10700.00 /
PLOG /     3.160 5.660e+12   -1.250  14570.00 /
PLOG /     3.160 5.370e-04    3.420   7218.00 /
PLOG /    10.000 3.300e+23   -4.450  21209.99 /
PLOG /    31.600 2.430e+22   -3.960  22650.00 /
PLOG /    31.600 8.110e+00    2.300  10559.99 /
PLOG /   100.000 1.170e+18   -2.570  22359.99 /
PLOG /   100.000 6.860e-04    3.420   9328.99 /
C2H2+HO2<=>CH2CO+OH                      5.280e-07    4.780  15459.99
PLOG /     0.010 6.250e-07    4.750  15530.00 /
PLOG /     0.010 1.310e-14    6.580  10270.00 /
PLOG /     0.100 6.700e-07    4.740  15550.00 /
PLOG /     0.100 1.290e-14    6.590  10330.00 /
PLOG /     0.316 4.180e-07    4.810  15409.99 /
PLOG /     0.316 3.990e-14    6.360  10270.00 /
PLOG /     1.000 5.280e-07    4.780  15459.99 /
PLOG /     1.000 3.280e-15    6.700  10090.01 /
PLOG /     3.160 1.040e-06    4.690  15640.01 /
PLOG /     3.160 8.710e-21    8.300   8107.00 /
PLOG /    10.000 4.680e-05    4.220  16780.00 /
PLOG /    10.000 8.360e-22    8.760   8803.99 /
PLOG /    31.600 8.990e-01    2.970  19729.99 /
PLOG /    31.600 6.870e-14    6.670  13130.00 /
PLOG /   100.000 3.580e+03    1.970  23009.99 /
PLOG /   100.000 6.630e-12    6.150  14730.00 /
C2H2+O<=>TXCH2+CO                        7.395e+08    1.280   2472.04
C2H2+O2<=>2HCO                           6.100e+12    0.000  53250.00
     DUPLICATE
C2H2+O2<=>2HCO                           1.700e+07    1.670  70960.09
     DUPLICATE
C2H2+H(+M)<=>C2H3(+M)                    1.709e+10    1.270   2707.93
CO/1.75/ H2O/12.00/ CO2/3.60/ H2/2.00/ CH4/2.00/ AR/0.70/ C2H6/3.00/ 
     LOW  /  6.340e+31   -4.660   3781.07 /
!     FCCHECK/  0.7878         1 0.2122    -10210      0         0
     TROE/  0.2122        1    -10210        /
C2H2+SXCH2<=>C2H2+TXCH2                  4.000e+13    0.000      0.00
CH3+C2H2<=>SXC3H5                        1.190e+44  -10.190  18728.01
PLOG /     0.001 1.780e+42  -10.400  13646.99 /
PLOG /     0.039 4.320e+37   -8.790  13594.00 /
PLOG /     1.000 1.190e+44  -10.190  18728.01 /
PLOG /     1.000 8.490e+35   -8.430  12356.00 /
PLOG /    10.000 6.020e+43   -9.740  20560.99 /
PLOG /    10.000 3.040e+32   -7.010  12357.00 /
PLOG /   100.000 1.420e+42   -8.910  22234.99 /
PLOG /   100.000 1.690e+27   -5.070  11690.01 /
C2H2+OH<=>CH2CO+H                        7.528e+06    1.550   2106.00
PLOG /     0.010 1.578e+03    2.560   -844.50 /
PLOG /     0.025 1.518e+04    2.280   -292.10 /
PLOG /     0.100 3.017e+05    1.920    598.10 /
PLOG /     1.000 7.528e+06    1.550   2106.00 /
PLOG /    10.000 5.101e+06    1.650   3400.00 /
PLOG /   100.000 1.457e+04    2.450   4477.01 /
C2H2+CH3<=>AXC3H5                        2.680e+53  -12.820  35729.92
PLOG /     0.100 8.200e+53  -13.320  33200.05 /
PLOG /     1.000 2.680e+53  -12.820  35729.92 /
PLOG /     2.000 3.640e+52  -12.460  36126.91 /
PLOG /     5.000 1.040e+51  -11.890  36476.10 /
PLOG /    10.000 4.400e+49  -11.400  36700.05 /
PLOG /   100.000 3.800e+44   -9.630  37599.90 /
C2H2+HO2<=>CH2CHO+O                      3.020e+07    0.980  13309.99
PLOG /     0.010 5.500e+06    1.190  12880.00 /
PLOG /     0.010 2.940e-04    4.160   7735.99 /
PLOG /     0.100 1.160e+08    0.770  13600.00 /
PLOG /     0.100 6.140e-03    3.810   8394.00 /
PLOG /     0.316 1.200e+07    1.090  13050.00 /
PLOG /     0.316 5.440e-04    4.090   8044.00 /
PLOG /     1.000 3.020e+07    0.980  13309.99 /
PLOG /     1.000 2.480e-04    4.190   8203.01 /
PLOG /     3.160 1.980e+74  -16.330 109200.05 /
PLOG /     3.160 6.570e+04    1.850  12359.99 /
PLOG /    10.000 7.500e+14   -1.170  18350.00 /
PLOG /    10.000 2.920e-01    3.380  10590.01 /
PLOG /    31.600 8.630e+18   -2.270  22229.99 /
PLOG /    31.600 1.950e+00    3.170  11740.01 /
PLOG /   100.000 5.780e+18   -2.090  24349.90 /
PLOG /   100.000 1.100e-01    3.520  11980.00 /
C2H2+O<=>HCCO+H                          2.958e+09    1.280   2472.04
C2H2+SXCH2<=>C3H3+H                      3.970e+15   -0.571     -4.78
C2H2+TXCH2<=>C3H3+H                      1.200e+13    0.000   6619.98
C2H2+HO2<=>CH2O+HCO                      3.330e+102  -24.180 138599.90
PLOG /     0.010 3.900e+13   -1.170  13750.00 /
PLOG /     0.010 8.430e+00    2.560   7382.00 /
PLOG /     0.100 4.260e+00    2.640   7253.01 /
PLOG /     0.100 1.560e+13   -1.050  13520.00 /
PLOG /     0.316 2.590e-06    4.340   4525.00 /
PLOG /     0.316 6.900e+09   -0.000  11720.01 /
PLOG /     1.000 3.330e+102  -24.180 138599.90 /
PLOG /     1.000 8.070e+07    0.600  10850.00 /
PLOG /     3.160 5.220e+15   -1.750  15180.00 /
PLOG /     3.160 3.540e+00    2.690   8025.00 /
PLOG /    10.000 7.320e+35   -7.770  26969.88 /
PLOG /    10.000 9.840e+06    0.910  11709.99 /
PLOG /    31.600 1.780e+28   -5.300  25130.02 /
PLOG /    31.600 1.790e+04    1.700  11250.00 /
PLOG /   100.000 2.470e+16   -1.700  20029.99 /
PLOG /   100.000 4.320e-06    4.310   6828.99 /
C2H2+HO2<=>CHOCHO+H                      2.180e+09    0.060  12470.00
PLOG /     0.010 8.510e+07    0.480  11720.01 /
PLOG /     0.010 2.430e-06    4.430   5578.01 /
PLOG /     0.100 7.430e+07    0.500  11690.01 /
PLOG /     0.100 2.000e-06    4.450   5564.01 /
PLOG /     0.316 7.910e+07    0.490  11700.00 /
PLOG /     0.316 1.810e-06    4.460   5653.99 /
PLOG /     1.000 2.180e+09    0.060  12470.00 /
PLOG /     1.000 2.240e-05    4.170   6415.99 /
PLOG /     3.160 7.000e+49  -10.180  77109.94 /
PLOG /     3.160 7.650e+05    1.180  11340.01 /
PLOG /    10.000 4.060e+16   -2.030  17629.99 /
PLOG /    10.000 2.010e-02    3.380   8696.01 /
PLOG /    31.600 9.380e+16   -2.030  19590.01 /
PLOG /    31.600 6.060e-03    3.530   9216.99 /
PLOG /   100.000 5.910e+21   -3.320  25030.12 /
PLOG /   100.000 6.760e-02    3.270  10759.99 /
C2H2+HO2<=>CO2+CH3                       3.960e+84  -19.800 119799.95
PLOG /     0.010 1.150e-07    4.310   4614.01 /
PLOG /     0.010 2.010e+08    0.000  11790.01 /
PLOG /     0.100 1.100e-07    4.320   4621.99 /
PLOG /     0.100 2.010e+08    0.000  11780.00 /
PLOG /     0.316 1.750e+142  -35.040 188700.05 /
PLOG /     0.316 1.550e+05    0.950  10200.00 /
PLOG /     1.000 3.960e+84  -19.800 119799.95 /
PLOG /     1.000 1.380e+06    0.680  10809.99 /
PLOG /     3.160 5.020e+13   -1.600  14980.00 /
PLOG /     3.160 9.290e-03    3.000   7659.01 /
PLOG /    10.000 8.560e+28   -6.150  24030.12 /
PLOG /    10.000 1.860e+04    1.260  11230.00 /
PLOG /    31.600 1.280e+27   -5.420  25380.02 /
PLOG /    31.600 2.890e+02    1.790  11240.01 /
PLOG /   100.000 1.710e+15   -1.800  20370.01 /
PLOG /   100.000 3.900e-07    4.210   7314.01 /
C2H2+OH<=>CH3+CO                         1.277e+09    0.730   2578.99
PLOG /     0.010 4.757e+05    1.680   -329.80 /
PLOG /     0.025 4.372e+06    1.400    226.50 /
PLOG /     0.100 7.648e+07    1.050   1115.00 /
PLOG /     1.000 1.277e+09    0.730   2578.99 /
PLOG /    10.000 4.312e+08    0.920   3735.99 /
PLOG /   100.000 8.250e+05    1.770   4696.99 /
C2H2+HO2=>CH2O+H+CO                      7.770e+102  -24.180 138599.90
PLOG /     0.010 9.100e+13   -1.170  13750.00 /
PLOG /     0.010 1.970e+01    2.560   7382.00 /
PLOG /     0.100 9.940e+00    2.640   7253.01 /
PLOG /     0.100 3.630e+13   -1.050  13520.00 /
PLOG /     0.316 6.050e-06    4.340   4525.00 /
PLOG /     0.316 1.610e+10   -0.000  11720.01 /
PLOG /     1.000 7.770e+102  -24.180 138599.90 /
PLOG /     1.000 1.880e+08    0.600  10850.00 /
PLOG /     3.160 1.220e+16   -1.750  15180.00 /
PLOG /     3.160 8.260e+00    2.690   8025.00 /
PLOG /    10.000 1.710e+36   -7.770  26969.88 /
PLOG /    10.000 2.300e+07    0.910  11709.99 /
PLOG /    31.600 4.140e+28   -5.300  25130.02 /
PLOG /    31.600 4.190e+04    1.700  11250.00 /
PLOG /   100.000 5.770e+16   -1.700  20029.99 /
PLOG /   100.000 1.010e-05    4.310   6828.99 /
C2H3+CH3<=>C2H2+CH4                      2.050e+13    0.000      0.00
C2H3+O2<=>CO+CH3O                        1.030e+11   -0.330   -747.80
PLOG /     0.010 8.190e+18   -2.660   3201.00 /
PLOG /     0.010 1.290e+09    0.180  -1717.00 /
PLOG /     0.100 4.060e+14   -1.320    885.80 /
PLOG /     0.100 5.990e+11   -2.930  -9564.01 /
PLOG /     1.000 1.030e+11   -0.330   -747.80 /
PLOG /     1.000 5.770e+21   -3.540   4771.99 /
PLOG /     3.160 1.890e+12   -3.000  -8995.00 /
PLOG /     3.160 4.990e+15   -1.620   1849.00 /
PLOG /    10.000 1.930e+24   -5.630      1.80 /
PLOG /    10.000 9.330e+16   -1.960   3324.00 /
PLOG /    31.600 1.100e+18   -2.220   5178.01 /
PLOG /    31.600 1.020e+72  -20.690  15859.99 /
PLOG /   100.000 5.790e+32   -6.450  16809.99 /
PLOG /   100.000 1.100e+09    0.310   1024.00 /
C2H3+CH2O<=>C2H4+HCO                     1.420e+10    0.209   3934.20
PLOG /     0.001 1.110e+07    1.090   1807.20 /
PLOG /     0.010 2.470e+07    0.993   1994.90 /
PLOG /     0.100 2.470e+08    0.704   2596.20 /
PLOG /     1.000 1.420e+10    0.209   3934.20 /
PLOG /    10.000 3.450e+13   -0.726   6944.31 /
PLOG /   100.000 3.310e+14   -0.866  10965.70 /
PLOG /  1000.000 1.650e+01    3.170   9399.81 /
2C2H3<=>C3H3+CH3                         1.800e+13    0.000      0.00
C2H3+H<=>C2H4                            8.820e+29   -5.236   5080.16
PLOG /     0.001 1.193e+26   -5.021   3089.75 /
PLOG /     0.010 1.053e+27   -5.000   3073.38 /
PLOG /     0.100 2.107e+28   -5.085   3485.78 /
PLOG /     1.000 8.820e+29   -5.236   5080.16 /
PLOG /    10.000 3.624e+22   -2.791   2637.00 /
PLOG /   100.000 1.250e+19   -1.592   1961.09 /
C2H3+O2<=>CH2O+HCO                       3.030e+35   -7.320  11820.00
PLOG /     0.010 2.770e+36   -7.600  12640.01 /
PLOG /     0.010 5.040e+15   -1.280    515.30 /
PLOG /     0.100 2.700e+36   -7.600  12609.99 /
PLOG /     0.100 5.100e+15   -1.280    513.00 /
PLOG /     0.316 2.170e+36   -7.570  12490.01 /
PLOG /     0.316 5.340e+15   -1.290    520.60 /
PLOG /     1.000 3.030e+35   -7.320  11820.00 /
PLOG /     1.000 6.760e+15   -1.310    645.70 /
PLOG /     3.160 1.590e+36   -7.470  12459.99 /
PLOG /     3.160 1.050e+16   -1.360   1066.00 /
PLOG /    10.000 5.760e+35   -7.200  13430.00 /
PLOG /    10.000 2.840e+15   -1.180   1429.00 /
PLOG /    31.600 3.540e+20   -2.570   5578.01 /
PLOG /    31.600 1.140e+69  -19.230  14759.99 /
PLOG /   100.000 3.030e+33   -6.280  16000.00 /
PLOG /   100.000 4.680e+10    0.190    830.60 /
C2H3+O2=>CH2O+H+CO                       7.070e+35   -7.320  11820.00
PLOG /     0.010 6.470e+36   -7.600  12640.01 /
PLOG /     0.010 1.180e+16   -1.280    515.30 /
PLOG /     0.100 6.290e+36   -7.600  12609.99 /
PLOG /     0.100 1.190e+16   -1.280    513.00 /
PLOG /     0.316 5.060e+36   -7.570  12490.01 /
PLOG /     0.316 1.260e+16   -1.290    520.60 /
PLOG /     1.000 7.070e+35   -7.320  11820.00 /
PLOG /     1.000 1.580e+16   -1.310    645.70 /
PLOG /     3.160 3.720e+36   -7.470  12459.99 /
PLOG /     3.160 2.440e+16   -1.360   1066.00 /
PLOG /    10.000 1.340e+36   -7.200  13430.00 /
PLOG /    10.000 6.640e+15   -1.180   1429.00 /