ELEMENTS
AR N  HE H  O  C  
END
SPECIES
AR                N2                HE                H2                H                 O2                O                 H2O               
OH                H2O2              HO2               CO                CO2               HOCO              CH4               CH3               
CH2               CH2(S)            C                 CH                CH3O2H            CH3O2             CH3OH             CH3O              
CH2OH             CH2O              HCO               HO2CHO            HOCHO             OCHO              C2H6              C2H5              
C2H5O2H           C2H5O2            C2H4              C2H3              C2H2              C2H               C2H5OH            C2H5O             
PC2H4OH           SC2H4OH           C2H4O2H           C2H4O1            C2H3O1            CH3CHO            CH3CO             CH2CHO            
CH2CO             HCCO              CH3CO3            CH3CO3H           CH2OHCHO          CHOCHO            O2C2H4O2H         HO2CH2CHO         
CH3OCHO           CH3OCO            C3H8              IC3H7             NC3H7             C3H6              C3H5              C3H5              
C3H5              C3H5O             C3H6O             CH3CHCHO          AC4H7OOH          CH3CHCO           AC3H5OOH          C3H6OH1           
C3H6OH2           HOC3H6O2          SC3H5OH           C3H5OH            CH2CCH2OH         C3H4              C3H4              C3H3              
C3H2              C2H5CHO           CH2CH2CHO         RALD3             C2H3CHO           CH3COCH3          CH3COCH2          NC4H10            
PC4H9             SC4H9             IC4H10            IC4H9             TC4H9             IC4H8             IC4H7             IC4H7O            
C4H8              C4H8              C4H71             C4H71             C4H71             C4H6              C4H5              C4H4              
C4H3              C4H2              C6H6              FULVENE           C6H5              C5H6              C5H5              MCPTD             
C10H8             NO                N2O               NO2               HNO               HNO2              HONO              HONO2             
N2H2              H2NN              NH2OH             HNOH              NH3               N2H4              N                 NO3               
NH                NNH               NH2               H2NO              N2H3              HCN               HNC               HNCO              
HCNO              HOCN              CH2NO             CH3NO             CH3NO2            CH2NO2            CH3ONO            CH3ONO2           
CH3CN             CN                NCN               NCO               HNCN              H2CN              HCNH              C2N2              
CH2CN             CH2NH             CH3NH2            CH2NH2            CH3NH             OCHCN             OCH2CN            HCCN              
NCCO              C2N               C4N2              C4H5N             PYRLNE            PYRLYL            HNCPROP           AXC3H4CN          
CXC3H4CN          C3H4CN            AXC3H5CN          CXC3H5CN          TXC3H5CN          CHCHCN            CH2CHCN           C3HN              
C4H4N2            C4H3N2            C4H2N2            C2H5CN            CH2CH2CN          CH3CHCN           CH2N              PYRLYLO           
PYRLYLOOH         C4H4NO            PYRLYLOO          CH2CCHCN          C4H3NOLR          AXC3H4CNOOH       CHCNH             C4H4N             
LC4H4N            C4H5NOH           C4H4NOH           C4H3NOH           LC4H5NOH          AC4H4NO           OC4H3NO           HNC3H3CHO         
OC4H4NOH          OC4H3NOH          HOC4H5NO          HOC4H5NOOH        C4H3NO            
END
REACTIONS
H2+M<=>2H+M                              4.577e+19   -1.400 104400.00
HE/0.83/ H2/2.50/ H2O/12.00/ CO/1.90/ CO2/3.80/ CH4/2.00/ C2H6/3.00/ 
H2+O<=>H+OH                              5.080e+04    2.670   6292.00
H2+OH<=>H+H2O                            4.380e+13    0.000   6990.00
2O+M<=>O2+M                              6.165e+15   -0.500      0.00
AR/0.83/ HE/0.83/ H2/2.50/ H2O/12.00/ CO/1.90/ CO2/3.80/ CH4/2.00/ C2H6/3.00/ 
H+O2<=>O+OH                              1.140e+14    0.000  15286.00
H+OH+M<=>H2O+M                           3.500e+22   -2.000      0.00
AR/0.38/ H2/0.73/ H2O/3.65/ CH4/2.00/ C2H6/3.00/ 
O+H2O<=>2OH                              6.700e+07    1.704  14986.80
H+O+M<=>OH+M                             4.714e+18   -1.000      0.00
AR/0.75/ HE/0.75/ H2/2.50/ H2O/12.00/ CO/1.50/ CO2/2.00/ CH4/2.00/ C2H6/3.00/ 
H2O2(+M)<=>2OH(+M)                       2.000e+12    0.900  48749.00
N2/1.50/ HE/0.65/ H2/3.70/ O2/1.20/ H2O/7.65/ H2O2/7.70/ CO/2.80/ CO2/1.60/ 
     LOW  /  2.490e+24   -2.300  48749.00 /
!     FCCHECK/    0.57     1e-30   0.43     1e+30      0         0
     TROE/    0.43    1e-30     1e+30        /
H+H2O2<=>H2O+OH                          2.410e+13    0.000   3970.00
H+H2O2<=>H2+HO2                          2.150e+10    1.000   6000.00
O+H2O2<=>OH+HO2                          9.550e+06    2.000   3970.00
OH+H2O2<=>H2O+HO2                        1.740e+12    0.000    318.00
     DUPLICATE
OH+H2O2<=>H2O+HO2                        7.590e+13    0.000   7269.00
     DUPLICATE
H+HO2<=>2OH                              7.079e+13    0.000    295.00
H+HO2<=>H2+O2                            1.140e+10    1.083    553.78
O+HO2<=>O2+OH                            3.250e+13    0.000      0.00
OH+HO2<=>O2+H2O                          7.000e+12    0.000  -1092.96
     DUPLICATE
OH+HO2<=>O2+H2O                          4.500e+14    0.000  10929.60
     DUPLICATE
2HO2<=>O2+H2O2                           1.000e+14    0.000  11040.88
     DUPLICATE
2HO2<=>O2+H2O2                           1.900e+11    0.000  -1408.92
     DUPLICATE
H+O2(+M)<=>HO2(+M)                       4.650e+12    0.440      0.00
AR/0.50/ HE/0.64/ H2/1.30/ H2O/10.00/ CO/1.90/ CO2/3.80/ CH4/2.00/ C2H6/3.00/ 
     LOW  /  1.740e+19   -1.230      0.00 /
     TROE/    0.67    1e-30     1e+30     1e+30 /
O+CO(+M)<=>CO2(+M)                       1.362e+10    0.000   2384.00
AR/0.70/ HE/0.70/ H2/2.00/ H2O/12.00/ CO/1.75/ CO2/3.60/ 
     LOW  /  1.170e+24   -2.790   4191.00 /
!     FCCHECK/       0         0      0         0      1         0
     TROE/       1     1.00 10000000.00 10000000.00 /
OH+CO<=>H+CO2                            7.015e+04    2.053   -355.70
     DUPLICATE
OH+CO<=>H+CO2                            5.757e+12   -0.664    331.80
     DUPLICATE
HO2+CO<=>OH+CO2                          1.570e+05    2.180  17940.00
O2+CO<=>O+CO2                            1.119e+12    0.000  47700.00
H+CO2<=>OCHO                             7.500e+13    0.000  29000.00
HOCO<=>OH+CO                             6.300e+32   -5.960  32470.00
PLOG /     0.001 1.550e-08    2.930   8768.00 /
PLOG /     0.003 1.770e+03    0.340  18076.00 /
PLOG /     0.030 2.020e+13   -1.870  22755.00 /
PLOG /     0.099 1.680e+18   -3.050  24323.00 /
PLOG /     0.296 2.500e+24   -4.630  27067.00 /
PLOG /     0.987 4.540e+26   -5.120  27572.00 /
PLOG /     2.961 7.120e+28   -5.600  28535.00 /
PLOG /     9.869 5.480e+29   -5.700  28899.00 /
PLOG /    29.607 9.890e+31   -6.190  30518.00 /
PLOG /    98.690 5.740e+33   -6.530  32068.00 /
PLOG /   296.070 2.610e+33   -6.290  32231.00 /
PLOG /   986.900 6.300e+32   -5.960  32470.00 /
HOCO<=>H+CO2                             1.897e+38   -8.047  34240.00
PLOG /     0.001 4.758e+18   -3.817  17676.00 /
PLOG /     0.003 2.225e+20   -4.149  19037.00 /
PLOG /     0.010 7.564e+21   -4.434  20325.00 /
PLOG /     0.030 9.107e+24   -5.189  22419.00 /
PLOG /     0.099 3.144e+29   -6.376  25233.00 /
PLOG /     0.296 1.150e+32   -7.037  26662.00 /
PLOG /     0.987 1.069e+36   -8.107  29064.00 /
PLOG /     2.961 2.438e+36   -8.153  29336.00 /
PLOG /     9.869 6.663e+35   -7.919  29217.00 /
PLOG /    29.607 1.723e+38   -8.506  31273.00 /
PLOG /    98.690 3.007e+41   -9.290  33966.00 /
PLOG /   296.070 6.767e+36   -7.832  31613.00 /
PLOG /   986.900 1.897e+38   -8.047  34240.00 /
H+CH3(+M)<=>CH4(+M)                      1.270e+16   -0.630    383.00
AR/0.70/ HE/0.70/ H2/2.00/ H2O/6.00/ CO/1.50/ CO2/2.00/ CH4/2.00/ C2H6/3.00/ 
     LOW  /  2.480e+33   -4.760   2440.00 /
     TROE/   0.783       74      2941      6964 /
H+CH4<=>H2+CH3                           6.140e+05    2.500   9587.00
O+CH4<=>OH+CH3                           1.020e+09    1.500   8600.00
OH+CH4<=>H2O+CH3                         5.830e+04    2.600   2190.00
HO2+CH4<=>H2O2+CH3                       1.130e+01    3.740  21010.00
CH4+CH3O2<=>CH3+CH3O2H                   9.600e-01    3.770  17810.00
HO2+CH3<=>O2+CH4                         1.160e+05    2.230  -3022.00
CH4+CH2<=>2CH3                           2.460e+06    2.000   8270.00
N2+CH2(S)<=>N2+CH2                       1.500e+13    0.000    600.00
AR+CH2(S)<=>AR+CH2                       9.000e+12    0.000    600.00
H2O+CH2(S)<=>H2O+CH2                     3.000e+13    0.000      0.00
CO+CH2(S)<=>CO+CH2                       9.000e+12    0.000      0.00
CO2+CH2(S)<=>CO2+CH2                     7.000e+12    0.000      0.00
O2+CH2(S)=>H+OH+CO                       2.800e+13    0.000      0.00
O2+CH2(S)<=>H2O+CO                       1.200e+13    0.000      0.00
O+CH2(S)<=>H2+CO                         1.500e+13    0.000      0.00
O+CH2(S)<=>H+HCO                         1.500e+13    0.000      0.00
H2+CH2(S)<=>H+CH3                        7.000e+13    0.000      0.00
H+CH2(S)<=>H2+CH                         3.000e+13    0.000      0.00
OH+CH2(S)<=>H+CH2O                       3.000e+13    0.000      0.00
CO2+CH2(S)<=>CO+CH2O                     1.400e+13    0.000      0.00
H+CH2(+M)<=>CH3(+M)                      2.500e+16   -0.800      0.00
AR/0.70/ HE/0.70/ H2/2.00/ H2O/6.00/ CO/1.50/ CO2/2.00/ CH4/2.00/ C2H6/3.00/ 
     LOW  /  3.200e+27   -3.140   1230.00 /
     TROE/    0.68       78      1995      5590 /
O2+CH2<=>OH+HCO                          1.060e+13    0.000   1500.00
O2+CH2=>2H+CO2                           2.640e+12    0.000   1500.00
O+CH2=>2H+CO                             5.000e+13    0.000      0.00
H+CH2<=>H2+CH                            3.000e+13    0.000      0.00
OH+CH2<=>H2O+CH                          1.130e+07    2.000   3000.00
O2+CH<=>O+HCO                            3.300e+13    0.000      0.00
O+CH<=>H+CO                              5.700e+13    0.000      0.00
H+CH<=>H2+C                              1.100e+14    0.000      0.00
OH+CH<=>H+HCO                            3.000e+13    0.000      0.00
H2O+CH<=>H+CH2O                          1.774e+16   -1.220     23.80
CO2+CH<=>CO+HCO                          1.700e+12    0.000    685.00
OH+C<=>H+CO                              5.000e+13    0.000      0.00
O2+C<=>O+CO                              5.000e+13    0.000      0.00
O2+CH3(+M)<=>CH3O2(+M)                   7.812e+09    0.900      0.00

     LOW  /  6.850e+24   -3.000      0.00 /
     TROE/     0.6     1000        70      1700 /
O2+CH3<=>O+CH3O                          7.546e+12    0.000  28320.00
O2+CH3<=>OH+CH2O                         2.641e+00    3.283   8105.00
O+CH3<=>H+CH2O                           5.540e+13    0.050   -136.00
OH+CH3<=>H2O+CH2(S)                      4.936e+14   -0.669   -445.80
PLOG /     0.010 4.936e+14   -0.669   -445.80 /
PLOG /     0.100 1.207e+15   -0.778   -175.60 /
PLOG /     1.000 5.282e+17   -1.518   1772.00 /
PLOG /    10.000 4.788e+23   -3.155   7003.00 /
PLOG /   100.000 8.433e+19   -1.962   8244.00 /
OH+CH3<=>H2+CH2O                         3.502e+05    1.441  -3244.00
PLOG /     0.010 3.502e+05    1.441  -3244.00 /
PLOG /     0.100 8.854e+05    1.327  -2975.00 /
PLOG /     1.000 1.650e+07    0.973  -2010.00 /
PLOG /    10.000 5.374e+09    0.287    280.00 /
PLOG /   100.000 9.494e+18   -2.199   9769.00 /
OH+CH3<=>H+CH2OH                         1.621e+10    0.965   3210.00
PLOG /     0.010 1.621e+10    0.965   3214.00 /
PLOG /     0.100 1.807e+10    0.950   3247.00 /
PLOG /     1.000 4.686e+10    0.833   3566.00 /
PLOG /    10.000 1.525e+13    0.134   5641.00 /
PLOG /   100.000 3.590e+14   -0.186   8601.00 /
OH+CH3<=>H+CH3O                          1.186e+09    1.016  11940.00
PLOG /     0.010 1.186e+09    1.016  11940.00 /
PLOG /     0.100 1.188e+09    1.016  11940.00 /
PLOG /     1.000 1.230e+09    1.011  11950.00 /
PLOG /    10.000 1.798e+09    0.965  12060.00 /
PLOG /   100.000 5.242e+10    0.551  13070.00 /
OH+CH3<=>H2O+CH2                         4.293e+04    2.568   3997.80
HO2+CH3<=>OH+CH3O                        1.000e+12    0.269   -687.50
O+CH3O2<=>O2+CH3O                        3.600e+13    0.000      0.00
H+CH3O2<=>OH+CH3O                        9.600e+13    0.000      0.00
OH+CH3O2<=>O2+CH3OH                      6.000e+13    0.000      0.00
HO2+CH3O2<=>O2+CH3O2H                    2.470e+11    0.000  -1570.00
H2O2+CH3O2<=>HO2+CH3O2H                  2.410e+12    0.000   9936.00
CH3+CH3O2<=>2CH3O                        5.080e+12    0.000  -1411.00
2CH3O2=>O2+CH3OH+CH2O                    3.110e+14   -1.610  -1051.00
2CH3O2=>O2+2CH3O                         1.400e+16   -1.610   1860.00
H2+CH3O2<=>H+CH3O2H                      1.500e+14    0.000  26030.00
CH3O2H<=>OH+CH3O                         6.310e+14    0.000  42300.00
CH3OH(+M)<=>OH+CH3(+M)                   2.084e+18   -0.615  92540.60

     LOW  /  1.500e+43   -6.995  97992.20 /
     TROE/  -0.4748    35580      1116      9023 /
CH3OH(+M)<=>H2O+CH2(S)(+M)               3.121e+18   -1.017  91712.00

     LOW  /  1.430e+47   -8.227  99417.10 /
     TROE/   2.545     3290     47320     47110 /
CH3OH(+M)<=>H+CH2OH(+M)                  7.896e-03    5.038  84467.40

     LOW  /  3.390e+42   -7.244 105230.30 /
     TROE/  -73.91    37050     41500      5220 /
H+CH3OH<=>H2+CH3O                        1.990e+05    2.560  10300.00
H+CH3OH<=>H2+CH2OH                       3.070e+05    2.550   5440.00
O+CH3OH<=>OH+CH3O                        3.880e+04    2.500   3080.00
O+CH3OH<=>OH+CH2OH                       3.880e+05    2.500   3080.00
OH+CH3OH<=>H2O+CH3O                      1.500e+02    3.030   -763.00
OH+CH3OH<=>H2O+CH2OH                     3.080e+04    2.650   -806.70
O2+CH3OH<=>HO2+CH3O                      3.580e+04    2.270  42764.50
O2+CH3OH<=>HO2+CH2OH                     3.580e+05    2.270  42764.50
HO2+CH3OH<=>H2O2+CH3O                    1.220e+12    0.000  20070.70
HO2+CH3OH<=>H2O2+CH2OH                   3.260e+13    0.000  18782.20
CH3+CH3OH<=>CH4+CH2OH                    2.130e-01    3.953   7055.10
CH3+CH3OH<=>CH4+CH3O                     3.220e+03    2.425   8579.50
CH3OH+HCO<=>CH2OH+CH2O                   1.800e+03    2.900  13110.00
CH3OH+CH3O<=>CH3OH+CH2OH                 3.000e+11    0.000   4074.00
CH3O2+CH3OH<=>CH3O2H+CH2OH               1.810e+12    0.000  13710.00
O2+CH2OH<=>HO2+CH2O                      1.510e+15   -1.000      0.00
     DUPLICATE
O2+CH2OH<=>HO2+CH2O                      2.410e+14    0.000   5017.00
     DUPLICATE
H+CH2OH<=>H2+CH2O                        6.000e+12    0.000      0.00
HO2+CH2OH<=>H2O2+CH2O                    1.200e+13    0.000      0.00
CH2OH+HCO<=>2CH2O                        1.800e+14    0.000      0.00
CH2OH+HCO<=>CO+CH3OH                     1.000e+13    0.000      0.00
CH3O+CH2OH<=>CH3OH+CH2O                  2.400e+13    0.000      0.00
OH+CH2OH<=>H2O+CH2O                      2.400e+13    0.000      0.00
O+CH2OH<=>OH+CH2O                        4.200e+13    0.000      0.00
2CH2OH<=>CH3OH+CH2O                      3.000e+12    0.000      0.00
O2+CH3O<=>HO2+CH2O                       4.380e-19    9.500  -5501.00
H+CH3O<=>H2+CH2O                         2.000e+13    0.000      0.00
HO2+CH3O<=>H2O2+CH2O                     3.010e+11    0.000      0.00
CH3+CH3O<=>CH4+CH2O                      1.200e+13    0.000      0.00
2CH3O<=>CH3OH+CH2O                       6.030e+13    0.000      0.00
H+HCO(+M)<=>CH2O(+M)                     1.090e+12    0.480   -260.00
AR/0.70/ HE/0.70/ H2/2.00/ H2O/6.00/ CO/1.50/ CO2/2.00/ CH4/2.00/ C2H6/3.00/ 
     LOW  /  1.350e+24   -2.570   1425.00 /
     TROE/  0.7824      271      2755      6570 /
H2+CO(+M)<=>CH2O(+M)                     4.300e+07    1.500  79600.00
AR/0.70/ HE/0.70/ H2/2.00/ H2O/6.00/ CO/1.50/ CO2/2.00/ CH4/2.00/ C2H6/3.00/ 
     LOW  /  5.070e+27   -3.420  84348.00 /
     TROE/   0.932      197      1540     10300 /
O2+CH2O<=>HO2+HCO                        8.070e+15    0.000  53420.00
O+CH2O<=>OH+HCO                          6.260e+09    1.150   2260.00
H+CH2O<=>H2+HCO                          5.740e+07    1.900   2740.00
OH+CH2O<=>H2O+HCO                        7.820e+07    1.630  -1055.00
HO2+CH2O<=>H2O2+HCO                      1.880e+04    2.700  11520.00
CH3+CH2O<=>CH4+HCO                       3.830e+01    3.360   4312.00
CH2O+OCHO<=>HCO+HOCHO                    5.600e+12    0.000  13600.00
CH3O+CH2O<=>CH3OH+HCO                    6.620e+11    0.000   2294.00
CH3O2+CH2O<=>CH3O2H+HCO                  1.990e+12    0.000  11660.00
HCO+M<=>H+CO+M                           5.700e+11    0.660  14870.00
H2/2.00/ H2O/6.00/ CO/1.50/ CO2/2.00/ CH4/2.00/ C2H6/3.00/ 
O2+HCO<=>HO2+CO                          7.580e+12    0.000    410.00
O+HCO<=>OH+CO                            3.020e+13    0.000      0.00
H+HCO<=>H2+CO                            7.340e+13    0.000      0.00
OH+HCO<=>H2O+CO                          3.011e+13    0.000      0.00
CH3+HCO<=>CO+CH4                         2.650e+13    0.000      0.00
2HCO<=>CO+CH2O                           1.800e+13    0.000      0.00
O+HCO<=>H+CO2                            3.000e+13    0.000      0.00
HO2+HCO=>H+OH+CO2                        3.000e+13    0.000      0.00
2HCO=>H2+2CO                             3.000e+12    0.000      0.00
H+CH2O(+M)<=>CH2OH(+M)                   5.400e+11    0.454   3600.00
H2/2.00/ H2O/6.00/ CO/1.50/ CO2/2.00/ CH4/2.00/ C2H6/3.00/ 
     LOW  /  1.270e+32   -4.820   6530.00 /
     TROE/  0.7187      103      1291      4160 /
CH3O(+M)<=>H+CH2O(+M)                    6.800e+13    0.000  26170.00
H2/2.00/ H2O/6.00/ CO/1.50/ CO2/2.00/ CH4/2.00/ C2H6/3.00/ 
     LOW  /  1.870e+25   -3.000  24307.00 /
     TROE/     0.9     2500      1300     1e+99 /
HOCHO<=>H2O+CO                           2.450e+12    0.000  60470.00
HOCHO<=>H2+CO2                           2.950e+09    0.000  48520.00
HO2+OCHO<=>O2+HOCHO                      3.500e+10    0.000  -3275.00
H2O2+OCHO<=>HO2+HOCHO                    2.400e+12    0.000  10000.00
H+HOCHO=>H2+H+CO2                        4.240e+06    2.100   4868.00
H+HOCHO=>H2+OH+CO                        6.030e+13   -0.350   2988.00
O+HOCHO=>2OH+CO                          1.770e+18   -1.900   2975.00
OH+HOCHO=>H+H2O+CO2                      2.620e+06    2.060    916.00
OH+HOCHO=>H2O+OH+CO                      1.850e+07    1.510   -962.00
CH3+HOCHO=>OH+CO+CH4                     3.900e-07    5.800   2200.00
HO2+HOCHO=>OH+H2O2+CO                    1.000e+12    0.000  11920.00
OH+OCHO<=>HO2CHO                         2.000e+13    0.000      0.00
2CH3(+M)<=>C2H6(+M)                      2.277e+15   -0.690    174.90
H2O/5.00/ CO/2.00/ CO2/3.00/ 
     LOW  /  8.050e+31   -3.750    981.60 /
     TROE/       0      570     1e+30     1e+30 /
H+C2H5(+M)<=>C2H6(+M)                    5.210e+17   -0.990   1580.00
AR/0.70/ HE/0.70/ H2/2.00/ H2O/6.00/ CO/1.50/ CO2/2.00/ CH4/2.00/ C2H6/3.00/ 
     LOW  /  1.990e+41   -7.080   6685.00 /
     TROE/   0.842      125      2219      6882 /
O2+C2H6<=>HO2+C2H5                       6.030e+13    0.000  51870.00
O+C2H6<=>OH+C2H5                         3.550e+06    2.400   5830.00
H+C2H6<=>H2+C2H5                         1.150e+08    1.900   7530.00
OH+C2H6<=>H2O+C2H5                       1.480e+07    1.900    950.00
HO2+C2H6<=>H2O2+C2H5                     3.460e+01    3.610  16920.00
CH+C2H6<=>CH2+C2H5                       1.100e+14    0.000   -260.00
CH2(S)+C2H6<=>CH3+C2H5                   1.200e+14    0.000      0.00
CH3+C2H6<=>CH4+C2H5                      5.550e-04    4.720   3231.00
CH3O+C2H6<=>CH3OH+C2H5                   2.410e+11    0.000   7090.00
CH3O2+C2H6<=>CH3O2H+C2H5                 1.940e+01    3.640  17100.00
C2H6+C2H5O2<=>C2H5+C2H5O2H               8.600e+00    3.760  17200.00
H+C2H4(+M)<=>C2H5(+M)                    9.569e+08    1.463   1355.00
AR/0.70/ H2/2.00/ H2O/6.00/ CO/1.50/ CO2/2.00/ CH4/2.00/ C2H6/3.00/ 
     LOW  /  1.420e+39   -6.642   5769.00 /
     TROE/  -0.569      299     -9147     152.4 /
H+C2H5<=>H2+C2H4                         2.000e+12    0.000      0.00
2C2H4<=>C2H5+C2H3                        4.820e+14    0.000  71530.00
CH3+C2H5<=>CH4+C2H4                      1.180e+04    2.450  -2921.00
O+C2H5<=>H+CH3CHO                        1.100e+14    0.000      0.00
HO2+C2H5<=>OH+C2H5O                      1.100e+13    0.000      0.00
CH3O2+C2H5<=>CH3O+C2H5O                  8.000e+12    0.000  -1000.00
2CH3<=>H+C2H5                            4.740e+12    0.105  10664.30
PLOG /     0.010 4.740e+12    0.105  10664.30 /
PLOG /     0.100 2.570e+13   -0.096  11406.10 /
PLOG /     1.000 3.100e+14   -0.362  13372.50 /
PLOG /    10.000 2.150e+10    0.885  13532.50 /
PLOG /   100.000 1.032e+02    3.230  11236.10 /
O2+C2H5<=>C2H5O2                         3.398e+53  -13.900   9279.00
PLOG /     0.040 3.398e+53  -13.900   9279.00 /
PLOG /     1.000 9.362e+59  -15.280  14240.00 /
PLOG /    10.000 1.262e+60  -14.910  16240.00 /
O2+C2H5<=>C2H4O2H                        2.103e+34   -9.010   5444.00
PLOG /     0.040 2.103e+34   -9.010   5444.00 /
PLOG /     1.000 4.884e+33   -8.310   7710.00 /
PLOG /    10.000 1.705e+45  -11.490  14590.00 /
O2+C2H5<=>HO2+C2H4                       2.094e+09    0.490   -391.40
PLOG /     0.040 2.094e+09    0.490   -391.40 /
PLOG /     1.000 1.843e+07    1.130   -720.60 /
PLOG /    10.000 7.561e+14   -1.010   4749.00 /
O2+C2H5<=>OH+C2H4O1                      1.303e+03    1.930   -502.70
PLOG /     0.040 1.303e+03    1.930   -502.70 /
PLOG /     1.000 2.438e+02    2.180    -62.50 /
PLOG /    10.000 4.621e+09    0.150   5409.00 /
O2+C2H5<=>OH+CH3CHO                      4.908e-06    4.760    254.30
PLOG /     0.040 4.908e-06    4.760    254.30 /
PLOG /     1.000 6.803e-02    3.570   2643.00 /
PLOG /    10.000 8.265e+02    2.410   5285.00 /
C2H4O2H<=>C2H5O2                         2.653e-16    6.960   2396.00
PLOG /     0.040 2.653e-16    6.960   2396.00 /
PLOG /     1.000 1.064e+41  -10.100  26030.00 /
PLOG /    10.000 1.203e+36   -8.130  27020.00 /
C2H5O2<=>OH+CH3CHO                       1.237e+35   -9.420  36360.00
PLOG /     0.040 1.237e+35   -9.420  36360.00 /
PLOG /     1.000 1.687e+36   -9.220  38700.00 /
PLOG /    10.000 2.520e+41  -10.200  43710.00 /
C2H5O2<=>HO2+C2H4                        1.782e+32   -7.100  32840.00
PLOG /     0.040 1.782e+32   -7.100  32840.00 /
PLOG /     1.000 2.701e+37   -8.470  35840.00 /
PLOG /    10.000 1.980e+38   -8.460  37900.00 /
C2H5O2<=>OH+C2H4O1                       5.778e+45  -11.900   4112.00
PLOG /     0.040 5.778e+45  -11.900   4112.00 /
PLOG /     1.000 1.916e+43  -10.750  42400.00 /
PLOG /    10.000 3.965e+43  -10.460  45580.00 /
C2H4O2H<=>OH+C2H4O1                      8.959e+38   -9.400  20660.00
PLOG /     0.040 8.959e+38   -9.400  20660.00 /
PLOG /     1.000 1.224e+37   -8.320  21460.00 /
PLOG /    10.000 8.848e+30   -6.080  20660.00 /
C2H4O2H<=>HO2+C2H4                       3.918e+40  -10.200  22250.00
PLOG /     0.040 3.918e+40  -10.200  22250.00 /
PLOG /     1.000 6.825e+40   -9.610  23840.00 /
PLOG /    10.000 3.980e+34   -7.250  23250.00 /
C2H4O2H<=>OH+CH3CHO                      5.819e+26   -7.970  20860.00
PLOG /     0.040 5.819e+26   -7.970  20860.00 /
PLOG /     1.000 5.520e+34   -9.880  26230.00 /
PLOG /    10.000 1.188e+34   -9.020  29210.00 /
H2+C2H5O2<=>H+C2H5O2H                    1.500e+14    0.000  26030.00
HO2+C2H5O2<=>O2+C2H5O2H                  1.750e+10    0.000  -3275.00
CH2O+C2H5O2<=>HCO+C2H5O2H                1.990e+12    0.000  11660.00
CH4+C2H5O2<=>CH3+C2H5O2H                 1.810e+11    0.000  18480.00
CH3OH+C2H5O2<=>CH2OH+C2H5O2H             1.810e+12    0.000  13710.00
C2H5O2H<=>OH+C2H5O                       6.310e+14    0.000  42300.00
C2H4O1<=>CH3+HCO                         3.630e+13    0.000  57200.00
C2H4O1<=>CH3CHO                          2.240e+13    0.000  53800.00
H+C2H4O1<=>H2+C2H3O1                     8.000e+13    0.000   9680.00
OH+C2H4O1<=>H2O+C2H3O1                   1.780e+13    0.000   3610.00
HO2+C2H4O1<=>H2O2+C2H3O1                 1.130e+13    0.000  30430.00
CH3+C2H4O1<=>CH4+C2H3O1                  1.070e+12    0.000  11830.00
CH3O+C2H4O1<=>CH3OH+C2H3O1               1.200e+11    0.000   6750.00
CH3O2+C2H4O1<=>CH3O2H+C2H3O1             1.130e+13    0.000  30430.00
C2H5O2+C2H4O1<=>C2H5O2H+C2H3O1           1.130e+13    0.000  30430.00
C2H3O1<=>CH3CO                           8.500e+14    0.000  14000.00
C2H3O1<=>CH2CHO                          1.000e+14    0.000  14000.00
H+C2H3(+M)<=>C2H4(+M)                    6.080e+12    0.270    280.00
AR/0.70/ HE/0.70/ H2/2.00/ H2O/6.00/ CO/1.50/ CO2/2.00/ CH4/2.00/ C2H6/3.00/ 
     LOW  /  1.400e+30   -3.860   3320.00 /
     TROE/   0.782    207.5      2663      6095 /
C2H4+M<=>H2+C2H2+M                       2.610e+16    0.000  67823.00
AR/0.70/ H2/2.00/ H2O/6.00/ CO/1.50/ CO2/2.00/ CH4/2.00/ C2H6/3.00/ 
O2+C2H4<=>HO2+C2H3                       4.220e+13    0.000  57623.10
H+C2H4<=>H2+C2H3                         5.070e+07    1.930  12950.00
OH+C2H4<=>H2O+C2H3                       2.230e+04    2.745   2215.50
CH3O+C2H4<=>CH3OH+C2H3                   1.200e+11    0.000   6750.00
CH3O2+C2H4<=>CH3O2H+C2H3                 8.590e+00    3.754  27132.00
C2H5O2+C2H4<=>C2H5O2H+C2H3               8.590e+00    3.754  27132.00
CH3+C2H4<=>CH4+C2H3                      9.760e+02    2.947  15148.00
     DUPLICATE
CH3+C2H4<=>CH4+C2H3                      8.130e-05    4.417   8835.80
     DUPLICATE
O+C2H4<=>CH3+HCO                         7.453e+06    1.880    183.00
O+C2H4<=>H+CH2CHO                        6.098e+06    1.880    183.00
CH4+CH<=>H+C2H4                          6.000e+13    0.000      0.00
CH3+CH2(S)<=>H+C2H4                      2.000e+13    0.000      0.00
OH+C2H4<=>CH3+CH2O                       5.350e+00    2.920  -1732.70
PLOG /     0.010 5.350e+00    2.920  -1732.70 /
PLOG /     0.025 3.190e+01    2.710  -1172.30 /
PLOG /     0.100 5.550e+02    2.360   -180.80 /
PLOG /     1.000 1.780e+05    1.680   2060.50 /
PLOG /    10.000 2.370e+09    0.560   6006.70 /
PLOG /   100.000 2.760e+13   -0.500  11455.10 /
OH+C2H4<=>H+CH3CHO                       2.370e-07    5.300  -2050.60
PLOG /     0.010 2.370e-07    5.300  -2050.60 /
PLOG /     0.025 8.730e-05    4.570   -618.00 /
PLOG /     0.100 4.030e-01    3.540   1881.70 /
PLOG /     1.000 2.380e-02    3.910   1722.70 /
PLOG /    10.000 8.250e+08    1.010  10507.30 /
PLOG /   100.000 6.800e+09    0.810  13867.30 /
OH+C2H4<=>PC2H4OH                        1.740e+43  -10.461   7698.70
PLOG /     0.010 1.740e+43  -10.461   7698.70 /
PLOG /     0.025 3.250e+37   -8.629   5214.70 /
PLOG /     0.100 1.840e+35   -7.750   4908.90 /
PLOG /     1.000 2.560e+36   -7.752   6946.10 /
PLOG /    10.000 3.700e+33   -6.573   7605.90 /
PLOG /   100.000 1.120e+26   -4.101   5757.00 /
HO2+C2H4<=>OH+C2H4O1                     1.670e+12    0.000  17190.00
CH3O2+C2H4<=>CH3O+C2H4O1                 2.820e+12    0.000  17110.00
C2H5O2+C2H4<=>C2H5O+C2H4O1               2.820e+12    0.000  17110.00
H+C2H2(+M)<=>C2H3(+M)                    1.710e+10    1.266   2709.00
AR/0.70/ HE/0.70/ H2/2.00/ H2O/6.00/ CO/1.50/ CO2/2.00/ CH4/2.00/ C2H6/3.00/ 
     LOW  /  6.350e+31   -4.664   3780.00 /
!     FCCHECK/   0.212    -10200  0.788     1e-30      0         0
     TROE/   0.788   -10200     1e-30        /
O2+C2H3<=>O+CH2CHO                       1.760e+12    0.150   4205.00
PLOG /     0.010 7.880e+20   -2.670   6742.00 /
PLOG /     0.100 7.720e+20   -2.670   6713.00 /
PLOG /     0.316 9.870e+20   -2.700   6724.00 /
PLOG /     1.000 7.100e+20   -2.650   6489.00 /
PLOG /     3.160 4.500e+20   -2.530   6406.00 /
PLOG /    10.000 1.760e+23   -3.220   8697.00 /
PLOG /    31.600 3.140e+25   -3.770  11530.00 /
PLOG /   100.000 1.020e+26   -3.800  13910.00 /
     DUPLICATE
O2+C2H3<=>O+CH2CHO                       1.760e+12    0.150   4205.00
PLOG /     0.010 1.360e+10    0.620   -277.60 /
PLOG /     0.100 1.420e+10    0.620   -247.70 /
PLOG /     0.316 1.660e+10    0.600   -162.50 /
PLOG /     1.000 2.020e+10    0.580     38.40 /
PLOG /     3.160 9.750e+09    0.670    248.00 /
PLOG /    10.000 7.340e+09    0.720    778.10 /
PLOG /    31.600 1.570e+09    0.920   1219.00 /
PLOG /   100.000 7.850e+07    1.280   1401.00 /
     DUPLICATE
O2+C2H3<=>HO2+C2H2                       6.490e+06    1.500   5218.00
PLOG /     0.010 1.080e+07    1.280   3322.00 /
PLOG /     0.100 7.750e+06    1.330   3216.00 /
PLOG /     0.316 1.210e+07    1.270   3311.00 /
PLOG /     1.000 2.150e+07    1.190   3367.00 /
PLOG /     3.160 1.130e+08    1.000   3695.00 /
PLOG /    10.000 1.310e+11    0.120   5872.00 /
PLOG /    31.600 1.190e+09    0.820   5617.00 /
PLOG /   100.000 1.060e+17   -1.450  12230.00 /
     DUPLICATE
O2+C2H3<=>HO2+C2H2                       6.490e+06    1.500   5218.00
PLOG /     0.010 4.760e+01    2.750   -796.40 /
PLOG /     0.100 5.160e+01    2.730   -768.30 /
PLOG /     0.316 5.550e+01    2.730   -658.50 /
PLOG /     1.000 4.600e+01    2.760   -492.80 /
PLOG /     3.160 3.750e+00    3.070   -601.00 /
PLOG /    10.000 5.480e+00    3.070     85.70 /
PLOG /    31.600 4.470e+08    0.000    955.00 /
PLOG /   100.000 2.020e+01    2.940   1847.00 /
     DUPLICATE
O2+C2H3<=>OH+CH2CO                       1.170e+03    2.430   7074.00
PLOG /     0.010 8.660e+02    2.410   6061.00 /
PLOG /     0.100 8.910e+02    2.410   6078.00 /
PLOG /     0.316 9.430e+02    2.400   6112.00 /