THERMO ALL
   270.000  1000.000  3500.000
AR                000000AR  1               G    200.00   3500.00  820.00      1
 2.50013930E+00-3.98274981E-07 3.45878262E-10-1.18292360E-13 1.38552086E-17    2
-7.45407890E+02 4.37897364E+00 2.49974490E+00 1.52564521E-06-3.17348795E-09    3
 2.74298098E-12-8.58484225E-16-7.45343208E+02 4.38079814E+00                   4
N2                000000N   2               G    200.00   3500.00 1050.00      1
 2.81166073E+00 1.67067353E-03-6.79997423E-07 1.32881377E-10-1.02767439E-14    2
-8.69811581E+02 6.64838049E+00 3.73100682E+00-1.83159730E-03 4.32324662E-06    3
-3.04378151E-09 7.46071562E-13-1.06287426E+03 2.16821198E+00                   4
HE                000000HE  1               G    200.00   3500.00  850.00      1
 2.50020615E+00-5.42574539E-07 4.63925440E-10-1.57302006E-13 1.82971311E-17    2
-7.45426807E+02 9.27648992E-01 2.49964853E+00 2.08151049E-06-4.16681284E-09    3
 3.47464958E-12-1.04992392E-15-7.45332012E+02 9.30248553E-01                   4
H2                000000H   2               G    200.00   3500.00  700.00      1
 3.78199882E+00-1.01873267E-03 1.24226242E-06-4.19011934E-10 4.75543839E-14    2
-1.10283024E+03-5.60525914E+00 2.64204441E+00 5.49529256E-03-1.27163631E-05    3
 1.28749171E-08-4.70027742E-12-9.43236617E+02-5.12231216E-01                   4
H                 000000H   1               G    200.00   3500.00  860.00      1
 2.50031492E+00-7.73402853E-07 6.39349463E-10-2.12554663E-13 2.44483679E-17    2
 2.54736474E+04-4.48357209E-01 2.49950545E+00 2.99160513E-06-5.92752492E-09    3
 4.87804563E-12-1.45537730E-15 2.54737866E+04-4.44574040E-01                   4
O2                000000O   2               G    200.00   3500.00  700.00      1
 2.82012407E+00 2.48211358E-03-1.51202095E-06 4.48556203E-10-4.87305670E-14    2
-9.31350151E+02 7.94914554E+00 3.74403922E+00-2.79740152E-03 9.80122569E-06    3
-1.03259644E-08 3.79931251E-12-1.06069827E+03 3.82132643E+00                   4
O                 000000O   1               G    200.00   3500.00  720.00      1
 2.62549142E+00-2.08959630E-04 1.33918535E-07-3.85875862E-11 4.38918650E-15    2
 2.92061519E+04 4.48358522E+00 3.14799202E+00-3.11174070E-03 6.18137910E-06    3
-5.63808811E-09 1.94866020E-12 2.91309118E+04 2.13446546E+00                   4
H2O               000000H   2O   1          G    200.00   3500.00 1420.00      1
 2.66777069E+00 3.05768864E-03-9.00442530E-07 1.43361590E-10-1.00857859E-14    2
-2.98875645E+04 6.91191161E+00 4.06061172E+00-8.65807224E-04 3.24409535E-06    3
-1.80243084E-09 3.32483304E-13-3.02831314E+04-2.96150501E-01                   4
OH                000000H   1O   1          G    200.00   3500.00 1700.00      1
 2.49867381E+00 1.66635253E-03-6.28251336E-07 1.28346753E-10-1.05735839E-14    2
 3.88110712E+03 7.78218797E+00 3.91354630E+00-1.66275921E-03 2.30920021E-06    3
-1.02359503E-09 1.58829619E-13 3.40005047E+03 2.05474752E-01                   4
H2O2              000000H   2O   2          G    200.00   3500.00 1800.00      1
 4.76869611E+00 3.89237905E-03-1.21382388E-06 1.92615393E-10-1.22582099E-14    2
-1.80900219E+04-5.11810218E-01 3.34774226E+00 7.05005427E-03-3.84521989E-06    3
 1.16720651E-09-1.47618087E-13-1.75784785E+04 7.17868844E+00                   4
HO2               000000H   1O   2          G    200.00   3500.00  700.00      1
 3.02391888E+00 4.46390908E-03-2.23146492E-06 6.12710797E-10-6.64266234E-14    2
 3.99341610E+02 9.10699975E+00 3.61994300E+00 1.05805696E-03 5.06678961E-06    3
-6.33800780E-09 2.41597288E-12 3.15898233E+02 6.44411477E+00                   4
CO                000000O   1C   1          G    200.00   3500.00  960.00      1
 2.79255379E+00 1.87486888E-03-8.59711935E-07 1.91200072E-10-1.67855287E-14    2
-1.41723335E+04 7.41443566E+00 3.75723892E+00-2.14465246E-03 5.42079016E-06    3
-4.17025972E-09 1.11901129E-12-1.43575530E+04 2.79976796E+00                   4
CO2               000000O   2C   1          G    200.00   3500.00 1450.00      1
 4.70876459E+00 2.62914723E-03-9.30606601E-07 1.43892961E-10-7.62581849E-15    2
-4.90562638E+04-2.34976404E+00 2.31684348E+00 9.22755029E-03-7.75654079E-06    3
 3.28225351E-09-5.48722465E-13-4.83626067E+04 1.00786234E+01                   4
HOCO              000000H   1O   2C   1     G    200.00   3500.00 1570.00      1
 5.88810551E+00 3.28985483E-03-9.88703676E-07 1.12295219E-10-2.32818084E-15    2
-2.40914384E+04-5.05613782E+00 2.36661497E+00 1.22618052E-02-9.56063081E-06    3
 3.75217935E-09-5.81927565E-13-2.29856904E+04 1.35214769E+01                   4
CH4               000000H   4C   1          G    300.00   3500.00  700.00      1
 5.05346423E-01 1.23697845E-02-4.99807919E-06 1.04392764E-09-8.62897407E-14    2
-9.58982503E+03 1.61752774E+01 5.23967335E+00-1.46835123E-02 5.29732710E-05    3
-5.41668820E-08 1.96318566E-11-1.02526308E+04-4.97649750E+00                   4
CH3               000000H   3C   1          G    300.00   3500.00 1060.00      1
 2.78805103E+00 6.15233477E-03-2.21179348E-06 3.74402642E-10-2.48151341E-14    2
 1.65862829E+04 5.77899819E+00 3.47829311E+00 3.54764768E-03 1.47408447E-06    3
-1.94375959E-09 5.21921241E-13 1.64399516E+04 2.40875952E+00                   4
CH2               000000H   2C   1          G    300.00   3500.00 1800.00      1
 2.81272979E+00 3.55431373E-03-1.28768512E-06 2.21273711E-10-1.48738112E-14    2
 4.62073492E+04 6.64284613E+00 3.76489460E+00 1.43839193E-03 4.75583051E-07    3
-4.31788574E-10 7.58292840E-14 4.58645699E+04 1.48953154E+00                   4
CH2(S)            000000H   2C   1          G    300.00   3500.00  970.00      1
 2.75934297E+00 3.65468310E-03-1.35589915E-06 2.74980414E-10-2.36795474E-14    2
 5.06429079E+04 6.11646390E+00 4.18185436E+00-2.21134323E-03 7.71527558E-06    3
-5.95950394E-09 1.58314632E-12 5.03669407E+04-7.03002673E-01                   4
C                 000000C   1               G    200.00   3500.00  700.00      1
 2.49472530E+00 3.92839629E-05-6.70015043E-08 3.71818701E-11-5.07306883E-15    2
 8.54504422E+04 4.79314257E+00 2.54495193E+00-2.47725360E-04 5.48018473E-07    3
-5.48551442E-10 2.04117400E-13 8.54434105E+04 4.56874269E+00                   4
CH                000000H   1C   1          G    300.00   3500.00 1590.00      1
 2.27990124E+00 2.16985248E-03-7.07637961E-07 1.23973517E-10-9.56348764E-15    2
 7.11059412E+04 8.77326085E+00 3.77264333E+00-1.58547353E-03 2.83512242E-06    3
-1.36146061E-09 2.23995337E-13 7.06312492E+04 8.79407882E-01                   4
CH3O2H            000000H   4O   2C   1     G    300.00   3500.00 1090.00      1
 7.33435528E+00 9.33238522E-03-3.40995708E-06 5.79327683E-10-3.79241105E-14    2
-1.81046374E+04-1.19553978E+01 7.70006729E-01 3.34217377E-02-3.65604421E-05    3
 2.08548537E-08-4.68827412E-12-1.66736094E+04 2.02794898E+01                   4
CH3O2             000000H   3O   2C   1     G    300.00   3500.00 1800.00      1
 5.64141565E+00 8.74328786E-03-3.21961750E-06 5.43696195E-10-3.45016001E-14    2
-1.19010051E+03-3.41913299E+00 1.44289653E+00 1.80733304E-02-1.09946529E-05    3
 3.42333894E-09-4.34451981E-13 3.21366370E+02 1.93041283E+01                   4
CH3OH             000000H   4O   1C   1     G    300.00   3500.00 1800.00      1
 2.71701641E+00 1.21538330E-02-5.02106867E-06 1.01068022E-09-8.18460330E-14    2
-2.57693414E+04 9.47419935E+00 8.47330413E-01 1.63086907E-02-8.48345015E-06    3
 2.29304373E-09-2.59952076E-13-2.50962544E+04 1.95933300E+01                   4
CH3O              000000H   3O   1C   1     G    300.00   3500.00 1740.00      1
 5.72238202E+00 5.90227348E-03-1.80340517E-06 2.13334416E-10-5.61810217E-15    2
-7.86257469E+01-7.49174439E+00 8.89660877E-01 1.70119773E-02-1.13807360E-05    3
 3.88280984E-09-5.32841582E-13 1.60316121E+03 1.85001139E+01                   4
CH2OH             000000H   3O   1C   1     G    300.00   3500.00 1360.00      1
 5.04534889E+00 6.02727212E-03-2.11386942E-06 3.36086292E-10-2.00987913E-14    2
-4.03584125E+03-1.57523752E+00 2.34821588E+00 1.39600163E-02-1.08632196E-05    3
 4.62498344E-09-8.08499002E-13-3.30222107E+03 1.22661973E+01                   4
CH2O              000000H   2O   1C   1     G    300.00   3500.00  700.00      1
 1.33335649E+00 1.00905184E-02-5.12952568E-06 1.25425209E-09-1.19639111E-13    2
-1.39080170E+04 1.59916146E+01 4.32621300E+00-7.01151886E-03 3.15176970E-05    3
-3.36478647E-08 1.23454026E-11-1.43270169E+04 2.62028884E+00                   4
HCO               000000H   1O   1C   1     G    200.00   3500.00  770.00      1
 2.60049319E+00 5.29278249E-03-2.69184201E-06 7.21357759E-10-7.43521360E-14    2
 4.05725330E+03 1.07450933E+01 4.03483982E+00-2.15836881E-03 1.18233878E-05    3
-1.18459408E-08 4.00593960E-12 3.83636392E+03 4.20008759E+00                   4
HO2CHO            000000H   2O   3C   1     G    300.00   3500.00 1750.00      1
 1.00230822E+01 4.43559546E-03-1.56185376E-06 2.43414079E-10-1.38379678E-14    2
-3.81313379E+04-2.33591538E+01 2.47434347E+00 2.16898554E-02-1.63512194E-05    3
 5.87745813E-09-8.18701404E-13-3.54892793E+04 1.72835403E+01                   4
HOCHO             000000H   2O   2C   1     G    200.00   3500.00 1800.00      1
 3.79473611E+00 8.42765830E-03-3.84722323E-06 8.63390053E-10-7.73674639E-14    2
-4.73118219E+04 5.12934165E+00 1.85206268E+00 1.27447104E-02-7.44476662E-06    3
 2.19581353E-09-2.62426280E-13-4.66124595E+04 1.56434955E+01                   4
OCHO              000000H   1O   2C   1     G    200.00   3500.00  700.00      1
 2.58373953E+00 8.99565946E-03-4.55939794E-06 1.11902587E-09-1.07899902E-13    2
-1.67164582E+04 1.34890938E+01 4.25809173E+00-5.72067406E-04 1.59428739E-05    3
-1.84069473E-08 6.86566196E-12-1.69508675E+04 6.00851182E+00                   4
C2H6              000000H   6C   2          G    300.00   3500.00 1800.00      1
 4.07958900E+00 1.57445310E-02-5.96197729E-06 1.06867278E-09-7.61013320E-14    2
-1.25948044E+04-1.43088095E+00-2.41778536E-01 2.53475700E-02-1.39645098E-05    3
 4.03257370E-09-4.87754237E-13-1.10391121E+04 2.19572617E+01                   4
C2H5              000000H   5C   2          G    300.00   3500.00 1800.00      1
 5.19791691E+00 1.11042733E-02-3.71281225E-06 5.47664253E-10-2.89411258E-14    2
 1.17176203E+04-4.91384331E+00 6.75421542E-01 2.11542630E-02-1.20878037E-05    3
 3.64951293E-09-4.59753442E-13 1.33457186E+04 1.95628451E+01                   4
C2H5O2H           000000H   6O   2C   2     G    300.00   3500.00 1450.00      1
 1.00876756E+01 1.40221792E-02-4.79127901E-06 7.15473769E-10-3.78163224E-14    2
-2.40669301E+04-2.56733613E+01-5.77204980E-01 4.34425393E-02-3.52261343E-05    3
 1.47085107E-08-2.45040889E-12-2.09741147E+04 2.97412034E+01                   4
C2H5O2            000000H   5O   2C   2     G    300.00   3500.00 1480.00      1
 9.29919469E+00 1.29334674E-02-4.54028973E-06 7.01329039E-10-3.92079510E-14    2
-7.64002376E+03-2.14311622E+01 2.00183560E-01 3.75253894E-02-2.94645350E-05    3
 1.19284665E-08-1.93568388E-12-4.94671647E+03 2.60335021E+01                   4
C2H4              000000H   4C   2          G    300.00   3500.00 1650.00      1
 4.60402728E+00 9.50595334E-03-3.15129252E-06 4.53052053E-10-2.23949141E-14    2
 3.97229098E+03-3.77420959E+00-6.02932633E-02 2.08133971E-02-1.34307868E-05    3
 4.60638309E-09-6.51687496E-13 5.51151676E+03 2.10642173E+01                   4
C2H3              000000H   3C   2          G    300.00   3500.00 1450.00      1
 4.18728253E+00 7.47581889E-03-2.58984461E-06 4.05266527E-10-2.35023527E-14    2
 3.38403788E+04 1.51959400E+00 1.23421229E+00 1.56222195E-02-1.10171556E-05    3
 4.27989229E-09-6.91541277E-13 3.46967692E+04 1.68637042E+01                   4
C2H2              000000H   2C   2          G    300.00   3500.00  790.00      1
 4.37267448E+00 5.47212841E-03-2.03181549E-06 3.75019136E-10-2.77049082E-14    2
 2.58626598E+04-2.43835896E+00 7.70537004E-01 2.37107992E-02-3.66622030E-05    3
 2.95989749E-08-9.27579216E-12 2.64317975E+04 1.40907679E+01                   4
C2H               000000H   1C   2          G    300.00   3500.00 1710.00      1
 3.41788258E+00 4.21328986E-03-1.58936943E-06 2.68739182E-10-1.73346349E-14    2
 6.72874491E+04 5.32512360E+00 4.60873599E+00 1.42766784E-03 8.54158651E-07    3
-6.83903346E-10 1.21940588E-13 6.68801772E+04-1.05894069E+00                   4
C2H5OH            000000H   6O   1C   2     G    300.00   3500.00 1580.00      1
 7.32490781E+00 1.39762986E-02-4.67366813E-06 6.82063872E-10-3.47025233E-14    2
-3.18909572E+04-1.38313047E+01-4.22291345E-01 3.35894611E-02-2.32937590E-05    3
 8.53864232E-09-1.27783202E-12-2.94428423E+04 2.70882143E+01                   4
C2H5O             000000H   5O   1C   2     G    300.00   3500.00  700.00      1
 1.68957254E+00 2.35453825E-02-1.23415273E-05 3.08911892E-09-2.98016646E-13    2
-3.10347953E+03 1.69410913E+01 3.27852953E+00 1.44656283E-02 7.11508885E-06    3
-1.54409917E-08 6.31987999E-12-3.32593351E+03 9.84203351E+00                   4
PC2H4OH           000000H   5O   1C   2     G    300.00   3500.00 1470.00      1
 7.18479744E+00 1.17471684E-02-4.06239622E-06 6.31554315E-10-3.61644617E-14    2
-6.24418471E+03-9.60110435E+00 1.82077781E+00 2.63431402E-02-1.89562450E-05    3
 7.38613425E-09-1.18490255E-12-4.66716294E+03 1.83437447E+01                   4
SC2H4OH           000000H   5O   1C   2     G    300.00   3500.00 1500.00      1
 6.63757291E+00 1.19924616E-02-4.07718979E-06 6.22005746E-10-3.47508902E-14    2
-9.66525311E+03-7.65007083E+00 1.23305408E+00 2.64045119E-02-1.84892400E-05    3
 7.02736140E-09-1.10231017E-12-8.04389746E+03 2.06149522E+01                   4
C2H4O2H           000000H   5O   2C   2     G    300.00   3500.00 1440.00      1
 9.66417633E+00 1.29483231E-02-4.44318338E-06 6.83406486E-10-3.84804399E-14    2
 1.86599132E+03-2.38806240E+01 2.23212418E+00 3.35929124E-02-2.59479639E-05    3
 1.06393234E-08-1.76693824E-12 4.00642234E+03 1.46847781E+01                   4
C2H4O1            000000H   4O   1C   2     G    300.00   3500.00 1520.00      1
 6.04215745E+00 1.11433660E-02-3.80167555E-06 5.65227220E-10-2.94248485E-14    2
-9.44151504E+03-1.02352886E+01-2.19672847E+00 3.28246447E-02-2.51976743E-05    3
 9.94943721E-09-1.57288044E-12-6.93689372E+03 3.29622801E+01                   4
C2H3O1            000000H   3O   1C   2     G    200.00   3500.00 1800.00      1
 7.60993627E+00 6.11300599E-03-1.59366942E-06 1.28294181E-10 2.98967792E-15    2
 1.61313302E+04-1.70584529E+01 7.34197669E-02 2.28608204E-02-1.55501815E-05    3
 5.29737272E-09-7.14937896E-13 1.88444761E+04 2.37307466E+01                   4
CH3CHO            000000H   4O   1C   2     G    300.00   3500.00 1800.00      1
 6.22195722E+00 1.06589199E-02-3.75189842E-06 6.00730241E-10-3.66602409E-14    2
-2.30621368E+04-8.31410498E+00 9.75916358E-01 2.23167885E-02-1.34667889E-05    3
 4.19883783E-09-5.36397406E-13-2.11735621E+04 2.00785626E+01                   4
CH3CO             000000H   3O   1C   2     G    300.00   3500.00 1800.00      1
 6.07689126E+00 8.12979113E-03-2.81854843E-06 4.38697859E-10-2.55171377E-14    2
-4.06801090E+03-6.15493059E+00 1.47388056E+00 1.83587038E-02-1.13426423E-05    3
 3.59576967E-09-4.63999334E-13-2.41092704E+03 1.87575236E+01                   4
CH2CHO            000000H   3O   1C   2     G    300.00   3500.00 1340.00      1
 6.47703839E+00 7.91358483E-03-2.83605794E-06 4.62112345E-10-2.83230950E-14    2
-1.16170826E+03-8.37157529E+00 7.37868213E-01 2.50454361E-02-2.20135034E-05    3
 1.00031300E-08-1.80836370E-12 3.76389344E+02 2.09962840E+01                   4
CH2CO             000000H   2O   1C   2     G    300.00   3500.00 1360.00      1
 5.69523624E+00 6.46841662E-03-2.33588415E-06 3.83408110E-10-2.36897847E-14    2
-8.05944304E+03-4.61154379E+00 2.49503980E+00 1.58807591E-02-1.27171442E-05    3
 5.47226110E-09-9.59140702E-13-7.18898960E+03 1.18115656E+01                   4
HCCO              000000H   1O   1C   2     G    300.00   3500.00 1220.00      1
 5.81420555E+00 3.89116655E-03-1.41168501E-06 2.35668176E-10-1.49424559E-14    2
 1.94026781E+04-4.94089865E+00 3.33028657E+00 1.20351632E-02-1.14247957E-05    3
 5.70731334E-09-1.13618122E-12 2.00087543E+04 7.53650402E+00                   4
CH3CO3            000000H   3O   3C   2     G    300.00   3500.00 1760.00      1
 1.40469374E+01 2.48483553E-03 1.65900349E-06-8.55133733E-10 9.82286984E-14    2
-2.73756813E+04-4.36816937E+01 2.64892554E+00 2.83894080E-02-2.04187571E-05    3
 7.50765438E-09-1.08966734E-12-2.33635811E+04 1.77505785E+01                   4
CH3CO3H           000000H   4O   3C   2     G    300.00   3500.00 1240.00      1
 1.23807018E+01 1.08772145E-02-4.04888402E-06 6.94756714E-10-4.56573693E-14    2
-7.51809421E+04-3.74730277E+01-2.33886894E+00 5.83597008E-02-6.14873755E-05    3
 3.15756661E-08-6.27164717E-12-7.15304886E+04 3.67067396E+01                   4
CH2OHCHO          000000H   4O   2C   2     G    300.00   3500.00 1800.00      1
 8.91045197E+00 9.14305824E-03-2.53718672E-06 2.39203906E-10 8.50819818E-16    2
-4.09945451E+04-1.84179628E+01 1.56305393E+00 2.54706094E-02-1.61434794E-05    3
 5.27857156E-09-6.99061354E-13-3.83494818E+04 2.13476881E+01                   4
CHOCHO            000000H   2O   2C   2     G    300.00   3500.00 1570.00      1
 9.97760179E+00 4.26981410E-03-1.12729575E-06 7.37813461E-11 5.98355764E-15    2
-2.96900175E+04-2.75230931E+01 7.08345813E-01 2.78857529E-02-2.36902946E-05    3
 9.65467258E-09-1.51963607E-12-2.67794711E+04 2.13768443E+01                   4
O2C2H4O2H         000000H   5O   4C   2     G    300.00   3500.00 1800.00      1
 1.24323241E+01 1.62358931E-02-6.84260340E-06 1.39267436E-09-1.12911131E-13    2
-1.87641104E+04-2.90906754E+01 5.81911525E+00 3.09319126E-02-1.90892864E-05    3
 5.92848287E-09-7.42884535E-13-1.63833552E+04 6.70139020E+00                   4
HO2CH2CHO         000000H   4O   3C   2     G    300.00   3500.00 1240.00      1
 1.23807018E+01 1.08772145E-02-4.04888402E-06 6.94756714E-10-4.56573693E-14    2
-7.51809421E+04-3.74730277E+01-2.33886894E+00 5.83597008E-02-6.14873755E-05    3
 3.15756661E-08-6.27164717E-12-7.15304886E+04 3.67067396E+01                   4
CH3OCHO           000000H   4O   2C   2     G    300.00   3500.00  700.00      1
 5.02910656E+00-2.87377518E-02 6.15808969E-05-2.98073518E-08 4.29774802E-12    2
-4.07046731E+04 1.82412182E+01 1.61159838E-07-1.01774243E-09 2.31452260E-12    3
 2.88411193E-08-1.66481345E-11-4.00005982E+04 4.07099932E+01                   4
CH3OCO            000000H   3O   2C   2     G    300.00   3500.00  730.00      1
 2.57527319E+00 2.11166692E-02-1.20149823E-05 3.14849392E-09-3.11411023E-13    2
-2.07588781E+04 1.60124235E+01 4.66126888E+00 9.68655585E-03 1.14715521E-05    3
-1.83003959E-08 7.03409919E-12-2.10634335E+04 6.60518538E+00                   4
C3H8              000000H   8C   3          G    300.00   3500.00 1690.00      1
 8.33847174E+00 1.79340887E-02-5.80534735E-06 7.91036993E-10-3.43400484E-14    2
-1.70816240E+04-2.27461890E+01-1.38651283E+00 4.09518037E-02-2.62352719E-05    3
 8.85017882E-09-1.22652079E-12-1.37945792E+04 2.92742169E+01                   4
IC3H7             000000H   7C   3          G    300.00   3500.00 1800.00      1
 6.05951208E+00 1.82035629E-02-6.54041372E-06 1.09272158E-09-7.13189490E-14    2
 7.29671834E+03-6.80792853E+00-6.08211179E-01 3.30207257E-02-1.88880494E-05    3
 5.66591997E-09-7.06485393E-13 9.69709872E+03 2.92791807E+01                   4
NC3H7             000000H   7C   3          G    300.00   3500.00 1590.00      1
 7.21724904E+00 1.65877282E-02-5.58902564E-06 8.31338888E-10-4.40999722E-14    2
 8.50975662E+03-1.26938725E+01-1.37086095E-01 3.50892003E-02-2.30432445E-05    3
 8.14966967E-09-1.19478091E-12 1.08484352E+04 2.61969987E+01                   4
C3H6              000000H   6C   3          G    298.00   3500.00 1800.00      1
 6.31755560E+00 1.65819945E-02-6.59971811E-06 1.29512777E-09-1.03784233E-13    2
-3.79457443E+02-1.05616385E+01-8.55990156E-02 3.08112270E-02-1.84574118E-05    3
 5.68686618E-09-7.13747902E-13 1.92567822E+03 2.40935700E+01                   4
C3H5              000000H   5C   3          G    298.00   3500.00 1600.00      1
 8.53877544E+00 1.04611940E-02-3.15380114E-06 3.85308107E-10-1.26414993E-14    2
 1.71766372E+04-2.28181624E+01-3.57887838E-01 3.27028522E-02-2.40053557E-05    3
 9.07345584E-09-1.37016458E-12 2.00235695E+04 2.42845592E+01                   4
C3H5              000000H   5C   3          G    300.00   3500.00 1800.00      1
 6.52599587E+00 1.37686641E-02-5.50691247E-06 1.07278339E-09-8.39559746E-14    2
 2.86430047E+04-9.99636090E+00 1.54227615E+00 2.48435968E-02-1.47360231E-05    3
 4.49097250E-09-5.58704462E-13 3.04371438E+04 1.69765699E+01                   4
C3H5              000000H   5C   3          G    300.00   3500.00  770.00      1
 1.49331931E+00 2.33788729E-02-1.18550709E-05 2.86552466E-09-2.68203784E-13    2
 2.87117776E+04 1.76892216E+01 2.52238892E+00 1.80330567E-02-1.44114333E-06    3
-6.15086286E-09 2.65919476E-12 2.85533009E+04 1.29935181E+01                   4
C3H5O             000000H   5O   1C   3     G    300.00   3500.00 1610.00      1
 9.11080069E+00 1.37589640E-02-5.15319035E-06 9.32421477E-10-6.74695359E-14    2
 7.77376134E+03-2.10036707E+01 9.27196802E-01 3.40908991E-02-2.40959871E-05    3
 8.77622964E-09-1.28545217E-12 1.04088818E+04 2.23747994E+01                   4
C3H6O             000000H   6O   1C   3     G    300.00   3500.00 1550.00      1
 9.00938217E+00 1.57632592E-02-5.29374374E-06 7.64253482E-10-3.74126514E-14    2
-1.56669515E+04-2.44960176E+01-1.88321640E+00 4.38731910E-02-3.24969036E-05    3
 1.24645373E-08-1.92455520E-12-1.22902459E+04 3.28282090E+01                   4
CH3CHCHO          000000H   5O   1C   3     G    300.00   3500.00 1800.00      1
 6.70347390E+00 1.89922313E-02-9.18109947E-06 2.14445649E-09-1.96154630E-13    2
-6.21094374E+03-1.05801347E+01 2.92067461E-01 3.32398012E-02-2.10540744E-05    3
 6.54185460E-09-8.06904367E-13-3.90283743E+03 2.41197345E+01                   4
AC4H7OOH          000000H   8O   2C   4     G    300.00   3500.00 1660.00      1
 1.22738312E+01 2.55483298E-02-9.81264475E-06 1.82078493E-09-1.35039695E-13    2
-1.24525974E+04-3.36837692E+01 1.60151401E+00 5.12647567E-02-3.30503799E-05    3
 1.11532087E-08-1.54052520E-12-8.90938812E+03 2.32129101E+01                   4
CH3CHCO           000000H   4O   1C   3     G    300.00   3500.00 1280.00      1
 6.99681554E+00 1.49445061E-02-6.71568379E-06 1.45955014E-09-1.25293127E-13    2
-1.29366482E+04-1.07908106E+01 1.50068762E+00 3.21199058E-02-2.68431054E-05    3
 1.19425822E-08-2.17276033E-12-1.15296395E+04 1.70816041E+01                   4
AC3H5OOH          000000H   6O   2C   3     G    298.00   3500.00 1800.00      1
 1.36957660E+01 1.27112955E-02-4.21186205E-06 6.49029931E-10-3.94931011E-14    2
-1.11479408E+04-4.31791035E+01 4.22354617E+00 3.37606729E-02-2.17530099E-05    3
 7.14575135E-09-9.41815520E-13-7.73794171E+03 8.08652619E+00                   4
C3H6OH1           000000H   7O   1C   3     G    300.00   3500.00 1800.00      1
 8.46016309E+00 1.89669011E-02-7.38013611E-06 1.39189593E-09-1.05413410E-13    2
-1.21581705E+04-1.51603301E+01 4.08605516E-01 3.68592513E-02-2.22904279E-05    3
 6.91422623E-09-8.72403729E-13-9.25960980E+03 2.84163791E+01                   4
C3H6OH2           000000H   7O   1C   3     G    300.00   3500.00 1590.00      1
 8.99548175E+00 1.75103805E-02-6.94615451E-06 1.37004351E-09-1.07539367E-13    2
-1.65436317E+04-1.93287205E+01 1.31207700E+00 3.68397006E-02-2.51813622E-05    3
 9.01583289E-09-1.30970751E-12-1.41003090E+04 2.13023222E+01                   4
HOC3H6O2          000000H   7O   3C   3     G    300.00   3500.00 1480.00      1
 1.24409054E+01 2.15172911E-02-8.97737609E-06 1.82414695E-09-1.48047126E-13    2
-3.10315628E+04-3.23089021E+01 2.93449050E+00 4.72103043E-02-3.50175922E-05    3
 1.35539740E-08-2.12943683E-12-2.82176640E+04 1.72809692E+01                   4
SC3H5OH           000000H   6O   1C   3     G    300.00   3500.00 1260.00      1
 7.83167549E+00 1.85990423E-02-7.98421804E-06 1.67672178E-09-1.40411927E-13    2
-2.22362405E+04-1.56369778E+01-5.71229059E-02 4.36428467E-02-3.77982709E-05    3
 1.74513529E-08-3.27029906E-12-2.02482633E+04 2.42451081E+01                   4
C3H5OH            000000H   6O   1C   3     G    300.00   3500.00 1630.00      1
 9.39463165E+00 1.51343095E-02-4.86246194E-06 6.64177004E-10-2.94552271E-14    2
-2.20582201E+04-2.45922054E+01 4.73537613E-01 3.70265648E-02-2.50087092E-05    3
 8.90395092E-09-1.29322423E-12-1.91499434E+04 2.28055847E+01                   4
CH2CCH2OH         000000H   5O   1C   3     G    300.00   3500.00 1800.00      1
 7.15397445E+00 1.62590917E-02-7.06959863E-06 1.52062077E-09-1.30983718E-13    2
 1.01359979E+04-8.36739924E+00 2.39300602E+00 2.68390216E-02-1.58862068E-05    3
 4.78603122E-09-5.84512948E-13 1.18499465E+04 1.73999551E+01                   4
C3H4              000000H   4C   3          G    300.00   3500.00 1570.00      1
 6.45797874E+00 1.06371312E-02-3.61161691E-06 5.39412592E-10-2.85851166E-14    2
 1.94136785E+04-1.10770998E+01 1.72714322E+00 2.26902153E-02-1.51273024E-05    3
 5.42930027E-09-8.07229651E-13 2.08991609E+04 1.38804115E+01                   4
C3H4              000000H   4C   3          G    300.00   3500.00 1420.00      1
 6.37608347E+00 1.10282084E-02-3.89476355E-06 6.16686214E-10-3.59564923E-14    2
 2.00917847E+04-1.13282995E+01 5.08248708E-01 2.75573204E-02-2.13550931E-05    3
 8.81402404E-09-1.47914977E-12 2.17582498E+04 1.90382079E+01                   4
C3H3              000000H   3C   3          G    300.00   3500.00  840.00      1
 5.75057766E+00 1.05635746E-02-4.84060948E-06 1.09040067E-09-9.80036121E-14    2
 4.00565408E+04-5.04125077E+00 1.75584137E+00 2.95861284E-02-3.88094554E-05    3
 2.80498022E-08-8.12163503E-12 4.07276565E+04 1.35345468E+01                   4
C3H2              000000H   2C   3          G    300.00   3500.00 1260.00      1
 6.42043208E+00 6.05128805E-03-2.30888087E-06 4.10631691E-10-2.84293259E-14    2
 6.08598164E+04-8.32404432E+00 2.15397884E+00 1.95955841E-02-1.84330428E-05    3
 8.94193430E-09-1.72114810E-12 6.19349626E+04 1.32451537E+01                   4
C2H5CHO           000000H   6O   1C   3     G    300.00   3500.00 1710.00      1
 9.33264483E+00 1.46861099E-02-4.56012150E-06 5.69518723E-10-1.90908736E-14    2
-2.69164878E+04-2.52385500E+01-9.86882060E-02 3.67477076E-02-2.39124002E-05    3
 8.11426676E-09-1.12212421E-12-2.36909719E+04 2.53220277E+01                   4
CH2CH2CHO         000000H   5O   1C   3     G    300.00   3500.00  700.00      1
 1.38640406E+00 2.84363937E-02-1.56688640E-05 4.07196320E-09-4.03232082E-13    2
 6.14151623E+02 2.19844215E+01 2.41071817E+00 2.25831702E-02-3.12624215E-06    3
-7.87339090E-09 3.86296581E-12 4.70747647E+02 1.74080452E+01                   4
RALD3             000000H   5O   1C   3     G    300.00   3500.00 1140.00      1
-6.08013741E+00 4.60180069E-02-2.61696712E-05 6.65382100E-09-6.35305322E-13    2
-2.14966007E+03 5.90959826E+01 7.04072888E+00-2.01204655E-05 3.44068122E-05    3
-2.87710231E-08 7.13330083E-12-5.14121759E+03-5.92381697E+00                   4
C2H3CHO           000000H   4O   1C   3     G    300.00   3500.00 1600.00      1
 9.22597852E+00 1.12038370E-02-3.67974350E-06 5.08180212E-10-2.25803335E-14    2
-1.23719484E+04-2.08137568E+01 8.18908020E-01 3.22215132E-02-2.33838150E-05    3
 8.71821000E-09-1.30539749E-12-9.68168587E+03 2.36968523E+01                   4
CH3COCH3          000000H   6O   1C   3     G    300.00   3500.00 1790.00      1
 9.79507808E+00 1.35932475E-02-4.01642361E-06 4.43034534E-10-7.94382666E-15    2
-3.07542948E+04-2.70699366E+01-7.54579805E-03 3.54985523E-02-2.23728242E-05    3
 7.27968282E-09-9.62782972E-13-2.72449554E+04 2.59292979E+01                   4
CH3COCH2          000000H   5O   1C   3     G    300.00   3500.00 1590.00      1
 8.40473953E+00 1.29432020E-02-4.25667194E-06 6.02254394E-10-2.86747867E-14    2
-7.89528959E+03-1.63899862E+01 1.00367428E+00 3.15622341E-02-2.18217965E-05    3
 7.96708651E-09-1.18666726E-12-5.54175084E+03 2.27480011E+01                   4
NC4H10            000000H  10C   4          G    300.00   3500.00 1800.00      1
 1.54355398E+01 1.56272483E-02-3.14851528E-06-5.94437424E-11 5.32965968E-14    2
-2.28455275E+04-6.02418031E+01-1.20836793E+00 5.26137098E-02-3.39705665E-05    3
 1.13561308E-08-1.53219987E-12-1.68537208E+04 2.98384974E+01                   4
PC4H9             000000H   9C   4          G    300.00   3500.00  950.00      1
 3.94763002E+00 3.16286396E-02-1.12984869E-05 1.11637459E-09 5.54031497E-14    2
 6.05554723E+03 7.76350085E+00-2.76188480E-01 4.94131386E-02-3.93792747E-05    3
 2.08221906E-08-5.13033790E-12 6.85807275E+03 2.79243299E+01                   4
SC4H9             000000H   9C   4          G    300.00   3500.00  850.00      1
 3.40122933E+00 3.20901862E-02-1.12255469E-05 9.71712074E-10 8.30726317E-14    2
 4.66283101E+03 1.05291636E+01 2.36336443E-01 4.69837997E-02-3.75083944E-05    3
 2.15857101E-08-5.97986796E-12 5.20086280E+03 2.52835873E+01                   4
IC4H10            000000H  10C   4          G    300.00   3500.00 1260.00      1
 5.51955764E+00 3.23747276E-02-1.18655445E-05 1.37455209E-09 1.57073102E-14    2
-1.97025809E+04-6.34483269E+00-1.85965334E+00 5.58007942E-02-3.97537190E-05    3
 1.61302000E-08-2.91200060E-12-1.78430198E+04 3.09610168E+01                   4
IC4H9             000000H   9C   4          G    300.00   3500.00 1430.00      1
 7.95880556E+00 2.55088273E-02-8.62221410E-06 8.09648667E-10 4.02033504E-14    2
 3.37759285E+03-1.61084058E+01-1.15582382E+00 5.10042941E-02-3.53657107E-05    3
 1.32774793E-08-2.13948731E-12 5.98437685E+03 3.11244822E+01                   4
TC4H9             000000H   9C   4          G    300.00   3500.00 1400.00      1