ELEMENTS
O  H  C  N  AR HE
END
SPECIES
!ITV_C0C2
N2		AR		H		O2		O		OH		H2		H2O
HE		HO2		H2O2		CO		CO2		HCO		C		CH
T-CH2		CH3		CH2O		HCCO		C2H		CH2CO		C2H2		S-CH2
CH3OH		CH2OH		CH3O		CH4		CH3O2		C2H3		C2H4		C2H5
HCCOH		CH2CHO		CH3CHO		H2C2		C2H5O		C2H6		C2O		C2H5O2H
CH3CO3		CH2O2H		HCOH		CHCHO		CHOCHO		C2H2OH		HOCHO		C2H3OOH
C2H3OO		C2H3OH		HOCO		C2H4O1-2		CH2COOH		CH2CO2		CH3COH		SC2H2OH
HOCH2CO		C2H5OH		CH3CHOH		CH3O2H		O2CHO		HO2CHO		OCHO		C2H3O1-2
CH3CO		C2H4O2H		C2H5O2		CH3CO2		PC2H4OH		O2CH2CHO		HO2CH2CO	
!Reduced Glarborg 
!Ammonia 
N2H2
NNH
NH2
NH
HNO
HONO
N
H2NO
N2O
NH3
NO
NO2
N2H3	
!Species for NC chemistry from Glarborg
HCN
HNC
CN
HNCO
NCO
NCN
CH3NH2
H2CN
! CRECK-C5H5N
C5H5N
C5H4N
C5H5NO
C5H4NO
C5H4NO2
PYRLYL
bNC4H4CO
C3H3ONCO
C4H4CN
CHCHCN
C4H5N
PYRLNE
CH2CHCN
C2N2
HNCN
HOCN
CH3CN
CH2CN
HCNO
END
REACTIONS
H+O2<=>O+OH				1.040e+14 0.000 15286.090
O+H2<=>H+OH				3.818e+12 0.000 7947.897
	 DUPLICATE
O+H2<=>H+OH				8.792e+14 0.000 19169.933
	 DUPLICATE
H2+OH<=>H2O+H				2.160e+08 1.510 3429.971
2OH<=>O+H2O				3.340e+04 2.420 -1929.971
H2+M<=>2H+M				4.577e+19 -1.400 104380.019
H2/2.5/	H2O/12/	CO/1.9/	CO2/3.8/	
H2+AR<=>2H+AR				5.840e+18 -1.100 104380.019
H2+HE<=>2H+HE				5.840e+18 -1.100 104380.019
2O+M<=>O2+M				6.165e+15 -0.500  0.000
H2/2.5/	H2O/12/	CO/1.9/	CO2/3.8/	
2O+AR<=>O2+AR				1.886e+13 0.000 -1788.002
2O+HE<=>O2+HE				1.886e+13 0.000 -1788.002
O+H+M<=>OH+M				4.714e+18 -1.000  0.000
AR/0.75/	H2/2.5/	H2O/12/	HE/0.75/	CO/1.9/	CO2/3.8/	
H2O+M<=>H+OH+M				6.064e+27 -3.322 120789.914
N2/2/	O2/1.5/	H2/3/	HE/1.1/	CO/1.9/	CO2/3.8/	
2H2O<=>H+OH+H2O				1.006e+26 -2.440 120179.971
H+O2(+M)<=>HO2(+M)				4.651e+12 0.440  0.000
	TROE/ 5.000e-01  1.000e-30 1.000e+30 /
	LOW/ 6.366e+20  -1.720e+00  524.857 /
AR/0.67/	O2/0.78/	H2/2/	H2O/14/	HE/0.8/	CO/1.9/	CO2/3.8/	
HO2+H<=>H2+O2				2.750e+06 2.090 -1451.004
HO2+H<=>2OH				7.079e+13 0.000 294.933
HO2+O<=>O2+OH				2.850e+10 1.000 -723.948
OH+HO2<=>H2O+O2				1.930e+20 -2.490 584.130
	 DUPLICATE
OH+HO2<=>H2O+O2				1.210e+09 1.240 -1307.600
	 DUPLICATE
2HO2<=>H2O2+O2				1.214e+10 0.422 -1480.402
	 DUPLICATE
2HO2<=>H2O2+O2				1.688e+16 -0.681 12931.644
	 DUPLICATE
H2O2(+M)<=>2OH(+M)				2.000e+12 0.900 48749.044
	TROE/ 4.300e-01  1.000e-30 1.000e+30 /
	LOW/ 2.490e+24  -2.300e+00  48750.000 /
N2/1.5/	O2/1.2/	H2/3.7/	H2O/7.5/	HE/0.65/	H2O2/7.7/	CO/2.8/	CO2/1.6/	
H2O2+H<=>H2O+OH				2.410e+13 0.000 3969.885
H2O2+H<=>HO2+H2				4.820e+13 0.000 7950.048
H2O2+O<=>OH+HO2				9.550e+06 2.000 3969.885
H2O2+OH<=>HO2+H2O				1.740e+12 0.000 318.117
	 DUPLICATE
H2O2+OH<=>HO2+H2O				7.590e+13 0.000 7270.076
	 DUPLICATE
CO+O(+M)<=>CO2(+M)				1.800e+10 0.000 2385.277
	TROE/ 0.000e+00  0.000e+00 0.000e+00 0.000000e+00/
	LOW/ 1.550e+24  -2.790e+00  4192.161 /
AR/0.7/	H2/2/	H2O/12/	CO/1.75/	CO2/3.6/	
CO+OH<=>CO2+H				2.300e+07 1.350 973.948
PLOG/0.013	2.100e+05	1.900	-1064.001/
PLOG/0.132	2.500e+05	1.880	-1043.000/
PLOG/1.315	8.700e+05	1.730	-685.000/
PLOG/13.158	6.800e+06	1.480	48.000/
PLOG/131.580	2.300e+07	1.350	974.001/
CO+O2<=>CO2+O				1.050e+12 0.000 47700.048
CO+HO2<=>CO2+OH				1.570e+05 2.180 17942.639
HCO+H<=>CO+H2				1.200e+14 0.000  0.000
HCO+O<=>CO+OH				3.020e+13 0.000  0.000
HCO+O<=>CO2+H				3.000e+13 0.000  0.000
HCO+OH<=>CO+H2O				3.011e+13 0.000  0.000
HCO+CH3<=>CO+CH4				2.650e+13 0.000  0.000
2HCO<=>CO+CH2O				2.700e+13 0.000  0.000
HCO+M<=>CO+H+M				4.748e+11 0.659 14873.805
H2/2/	CO/1.75/	CO2/3.6/	CH4/2/	C2H6/3/	
HCO+O2<=>CO+HO2				1.200e+10 0.807 -727.055
C+OH<=>CO+H				5.000e+13 0.000  0.000
C+O2<=>CO+O				5.800e+13 0.000 576.004
CH+H<=>C+H2				1.650e+14 0.000  0.000
CH+O<=>CO+H				5.700e+13 0.000  0.000
CH+OH<=>HCO+H				3.000e+13 0.000  0.000
CH+H2<=>T-CH2+H				1.080e+14 0.000 3109.465
CH+H2(+M)<=>CH3(+M)				1.970e+12 0.430 -370.459
	TROE/ 5.780e-01  1.220e+02 2.535e+03 9.365000e+03/
	LOW/ 4.820e+25  -2.800e+00  590.344 /
AR/0.7/	H2/2/	H2O/12/	CO/1.75/	CO2/3.6/	CH4/2/	C2H6/3/	
CH+H2O<=>CH2O+H				5.710e+12 0.000 -755.258
CH+O2<=>HCO+O				6.710e+13 0.000  0.000
CH+CO(+M)<=>HCCO(+M)				5.000e+13 0.000  0.000
	TROE/ 5.757e-01  2.370e+02 1.652e+03 5.069000e+03/
	LOW/ 2.690e+28  -3.740e+00  1935.946 /
AR/0.7/	H2/2/	H2O/12/	CO/1.75/	CO2/3.6/	CH4/2/	C2H6/3/	
CH+CO2<=>HCO+CO				1.900e+14 0.000 15791.109
CO+H2(+M)<=>CH2O(+M)				4.300e+07 1.500 79600.860
	TROE/ 9.320e-01  1.970e+02 1.540e+03 1.030000e+04/
	LOW/ 5.070e+27  -3.420e+00  84349.904 /
AR/0.7/	H2/2/	H2O/12/	CO/1.75/	CO2/3.6/	CH4/2/	C2H6/3/	
HCO+H(+M)<=>CH2O(+M)				1.090e+12 0.480 -260.516
	TROE/ 7.824e-01  2.710e+02 2.755e+03 6.570000e+03/
	LOW/ 2.470e+24  -2.570e+00  425.430 /
AR/0.7/	H2/2/	H2O/12/	CO/1.75/	CO2/3.6/	CH4/2/	C2H6/3/	
T-CH2+H(+M)<=>CH3(+M)				6.000e+14 0.000  0.000
	TROE/ 5.620e-01  9.100e+01 5.836e+03 8.552000e+03/
	LOW/ 1.040e+26  -2.760e+00  1598.948 /
AR/0.7/	H2/2/	H2O/12/	CO/1.75/	CO2/3.6/	CH4/2/	C2H6/3/	
T-CH2+O<=>HCO+H				8.000e+13 0.000  0.000
T-CH2+OH<=>CH2O+H				2.000e+13 0.000  0.000
T-CH2+OH<=>CH+H2O				1.130e+07 2.000 2999.522
T-CH2+H2<=>H+CH3				5.000e+05 2.000 7229.924
T-CH2+O2=>CO2+2H				5.800e+12 0.000 1500.956
T-CH2+O2<=>CH2O+O				2.400e+12 0.000 1500.956
T-CH2+O2=>OH+H+CO				5.000e+12 0.000 1500.956
T-CH2+HO2<=>CH2O+OH				2.000e+13 0.000  0.000
T-CH2+C<=>C2H+H				5.000e+13 0.000  0.000
T-CH2+CO(+M)<=>CH2CO(+M)				8.100e+11 0.500 4510.038
	TROE/ 5.907e-01  2.750e+02 1.226e+03 5.185000e+03/
	LOW/ 2.690e+33  -5.110e+00  7096.080 /
AR/0.7/	H2/2/	H2O/12/	CO/1.75/	CO2/3.6/	CH4/2/	C2H6/3/	
T-CH2+CH<=>C2H2+H				4.000e+13 0.000  0.000
2T-CH2<=>C2H2+H2				1.600e+15 0.000 11943.117
2T-CH2=>C2H2+2H				2.000e+14 0.000 10989.484
S-CH2+N2<=>T-CH2+N2				1.500e+13 0.000 599.904
S-CH2+AR<=>T-CH2+AR				9.000e+12 0.000 599.904
S-CH2+H<=>CH+H2				3.000e+13 0.000  0.000
S-CH2+O<=>CO+H2				1.500e+13 0.000  0.000
S-CH2+O<=>HCO+H				1.500e+13 0.000  0.000
S-CH2+OH<=>CH2O+H				3.000e+13 0.000  0.000
S-CH2+H2<=>CH3+H				7.000e+13 0.000  0.000
S-CH2+O2<=>H+OH+CO				2.800e+13 0.000  0.000
S-CH2+O2<=>CO+H2O				1.200e+13 0.000  0.000
CH3OH(+M)<=>S-CH2+H2O(+M)				3.121e+18 -1.017 91711.998
	TROE/ 9.922e-01  4.731e+04 9.430e+02 4.711000e+04/
	LOW/ 1.430e+47  -8.227e+00  99417.065 /

S-CH2+H2O<=>T-CH2+H2O				3.000e+13 0.000  0.000
S-CH2+H2O=>H2+CH2O				6.820e+10 0.250 -934.512
S-CH2+CO<=>T-CH2+CO				9.000e+12 0.000  0.000
S-CH2+CO2<=>T-CH2+CO2				7.000e+12 0.000  0.000
S-CH2+CO2<=>CH2O+CO				1.400e+13 0.000  0.000
CH2OH(+M)<=>CH2O+H(+M)				7.370e+10 0.811 39585.086
	TROE/ 8.440e-01  9.000e+02 1.000e+00 3.315000e+03/
	LOW/ 3.500e+21  -1.990e+00  24000.000 /
AR/0.85/	H2/2/	H2O/6/	HE/0.67/	CO/1.5/	CO2/2/	CH2O/2.5/	CH3OH/3/	CH4/2/	C2H6/3/	
CH3O(+M)<=>CH2O+H(+M)				1.130e+10 1.210 24084.847
	TROE/ 3.410e-01  2.800e+01 1.000e+03 2.339000e+03/
	LOW/ 6.022e+16  -5.470e-01  18023.901 /
AR/0.85/	H2/2/	H2O/6/	HE/0.67/	CO/1.5/	CO2/2/	CH3OH/3/	CH4/2/	C2H6/3/	
CH2O+H<=>HCO+H2				5.740e+07 1.900 2741.396
CH2O+O<=>HCO+OH				3.900e+13 0.000 3539.675
CH2O+OH<=>HCO+H2O				3.430e+09 1.180 -446.941
CH2O+O2<=>HCO+HO2				1.000e+14 0.000 40000.000
CH2O+HO2<=>HCO+H2O2				5.600e+06 2.000 12000.478
CH2O+CH<=>CH2CO+H				9.460e+13 0.000 -516.252
CH3+H(+M)<=>CH4(+M)				6.920e+13 0.180  0.000
	TROE/ 7.830e-01  7.400e+01 2.941e+03 6.964000e+03/
	LOW/ 3.470e+38  -6.300e+00  5074.092 /
AR/0.7/	H2/2/	H2O/6/	CO/1.5/	CO2/2/	CH4/5/	C2H6/3/	
CH3+O<=>CH2O+H				5.540e+13 0.050 -135.994
CH3+O<=>H+H2+CO				8.310e+12 0.050 -135.994
CH3OH(+M)<=>CH3+OH(+M)				2.084e+18 -0.615 92540.631
	TROE/ 7.656e-01  5.951e+01 1.910e+03 9.374000e+03/
	LOW/ 1.500e+43  -6.995e+00  97992.113 /

CH3+OH<=>T-CH2+H2O				4.293e+04 2.568 3997.849
CH3+OH<=>CH2O+H2				3.502e+05 1.441 -3244.025
PLOG/0.010	3.502e+05	1.441	-3244.001/
PLOG/0.100	8.854e+05	1.327	-2975.000/
PLOG/1.000	1.650e+07	0.973	-2010.000/
PLOG/10.000	5.374e+09	0.287	280.000/
PLOG/100.000	9.494e+18	-2.199	9769.001/
CH3+OH<=>S-CH2+H2O				4.936e+14 -0.669 -445.746
PLOG/0.010	4.936e+14	-0.669	-445.801/
PLOG/0.100	1.207e+15	-0.778	-175.600/
PLOG/1.000	5.282e+17	-1.518	1772.000/
PLOG/10.000	4.788e+23	-3.155	7003.011/
PLOG/100.000	8.433e+19	-1.962	8244.001/
CH3+OH<=>HCOH+H2				7.250e+20 -2.402 9639.101
PLOG/0.010	8.674e+08	0.787	-3046.009/
PLOG/0.100	3.115e+09	0.630	-2669.001/
PLOG/1.000	1.557e+11	0.156	-1368.000/
PLOG/10.000	1.704e+21	-2.641	6411.998/
PLOG/100.000	7.250e+20	-2.402	9639.006/
HCOH+O2=>CO2+H+OH				5.000e+12 0.000  0.000
HCOH+O2<=>CO2+H2O				3.000e+13 0.000  0.000
HCOH+O=>CO2+2H				5.000e+13 0.000  0.000
HCOH+O=>CO+OH+H				3.000e+13 0.000  0.000
HCOH+H<=>CH2O+H				2.000e+14 0.000  0.000
HCOH+OH<=>HCO+H2O				2.000e+13 0.000  0.000
CH3+O2<=>CH3O+O				7.546e+12 0.000 28320.029
CH3+O2<=>CH2O+OH				2.641e+00 3.283 8104.924
CH3+O2(+M)<=>CH3O2(+M)				7.812e+09 0.900  0.000
	TROE/ 6.000e-01  1.000e+03 7.000e+01 1.700000e+03/
	LOW/ 6.850e+24  -3.000e+00   0.000 /

CH3+HO2<=>CH3O+OH				1.070e+12 0.273 -693.117
CH3+HO2<=>CH4+O2				1.200e+05 2.227 -3021.033
CH3+H2O2<=>CH4+HO2				2.450e+04 2.470 5179.254
CH3+C<=>C2H2+H				5.000e+13 0.000  0.000
CH3+CH<=>C2H3+H				3.000e+13 0.000  0.000
CH3+CH2O<=>CH4+HCO				3.320e+03 2.810 5860.421
CH3+T-CH2<=>C2H4+H				2.000e+13 0.000  0.000
CH3+S-CH2<=>C2H4+H				2.000e+13 0.000  0.000
2CH3<=>H+C2H5				4.740e+12 0.105 10664.197
PLOG/0.010	4.740e+12	0.105	10664.293/
PLOG/0.100	2.570e+13	-0.096	11406.095/
PLOG/1.000	3.100e+14	-0.362	13372.490/
PLOG/10.000	2.150e+10	0.885	13532.505/
PLOG/100.000	1.032e+02	3.230	11236.090/
CH3O2+O<=>CH3O+O2				3.600e+13 0.000  0.000
CH3O2+H<=>CH3O+OH				9.600e+13 0.000  0.000
CH3O2+OH<=>CH3OH+O2				6.000e+13 0.000  0.000
CH3O2+HO2<=>CH3O2H+O2				4.940e+11 0.000 -1570.029
CH3O2+H2O2<=>CH3O2H+HO2				2.410e+12 0.000 9935.946
CH3O2+CH3<=>2CH3O				5.080e+12 0.000 -1411.090
2CH3O2=>CH2O+CH3OH+O2				3.110e+14 -1.610 -1050.908
2CH3O2=>O2+2CH3O				1.400e+16 -1.610 1859.943
H2+CH3O2<=>H+CH3O2H				1.500e+14 0.000 26030.115
CH2O2H<=>CH2O+OH				3.000e+14 0.000 1500.000
CH3O+H(+M)<=>CH3OH(+M)				2.430e+12 0.520 50.191
	TROE/ 7.000e-01  1.000e+02 9.000e+04 1.000000e+04/
	LOW/ 4.660e+41  -7.440e+00  14079.828 /
AR/0.7/	H2/2/	H2O/12/	CO/1.75/	CO2/3.6/	CH4/2/	C2H6/3/	
CH3O+H<=>CH2OH+H				4.150e+07 1.630 1923.996
CH3O+H<=>CH2O+H2				2.000e+13 0.000  0.000
CH3+OH<=>H+CH3O				1.186e+09 1.016 11940.010
PLOG/0.010	1.186e+09	1.016	11940.010/
PLOG/0.100	1.188e+09	1.016	11940.010/
PLOG/1.000	1.230e+09	1.011	11950.000/
PLOG/10.000	1.798e+09	0.965	12059.990/
PLOG/100.000	5.242e+10	0.551	13070.005/
CH3O+H<=>S-CH2+H2O				2.620e+14 -0.230 1070.746
CH3O+O<=>CH2O+OH				1.000e+13 0.000  0.000
CH3O+OH<=>CH2O+H2O				3.619e+02 2.498 1889.340
CH3O+O2<=>CH2O+HO2				2.170e+10 0.000 1748.805
CH3OH(+M)<=>CH2OH+H(+M)				7.896e-03 5.038 84467.495
	TROE/ 6.843e-01  4.149e+04 3.705e+04 3.980000e+03/
	LOW/ 3.390e+42  -7.244e+00  105230.402 /

CH2OH+H<=>CH2O+H2				2.000e+13 0.000  0.000
CH3+OH<=>CH2OH+H				1.621e+10 0.965 3210.086
PLOG/0.010	1.054e+10	0.965	3209.990/
PLOG/0.100	1.175e+10	0.950	3250.000/
PLOG/1.000	3.046e+10	0.833	3570.005/
PLOG/10.000	9.912e+12	0.134	5640.010/
PLOG/100.000	2.334e+14	-0.186	8600.000/
CH2OH+H<=>S-CH2+H2O				3.280e+13 -0.090 609.465
CH2OH+O<=>CH2O+OH				1.000e+13 0.000  0.000
CH2OH+OH<=>CH2O+H2O				5.000e+12 0.000  0.000
CH2OH+O2<=>CH2O+HO2				1.800e+13 0.000 901.052
CH4+H<=>CH3+H2				6.600e+08 1.620 10841.300
CH4+O<=>CH3+OH				1.020e+09 1.500 8599.426
CH4+OH<=>CH3+H2O				1.000e+08 1.600 3119.025
CH4+CH<=>C2H4+H				6.000e+13 0.000  0.000
CH4+T-CH2<=>2CH3				2.460e+06 2.000 8269.598
CH4+S-CH2<=>2CH3				1.600e+13 0.000 -571.224
CH3OH+H<=>CH2OH+H2				1.700e+07 2.100 4870.937
CH3OH+H<=>CH3O+H2				4.200e+06 2.100 4870.937
CH3OH+O<=>CH2OH+OH				3.880e+05 2.500 3099.904
CH3OH+O<=>CH3O+OH				1.300e+05 2.500 5000.000
CH3OH+OH<=>CH2OH+H2O				1.440e+06 2.000 -841.300
CH3OH+OH<=>CH3O+H2O				6.300e+06 2.000 1500.956
CH3OH+CH3<=>CH2OH+CH4				3.000e+07 1.500 9940.249
CH3OH+CH3<=>CH3O+CH4				1.000e+07 1.500 9940.249
C2H+H(+M)<=>C2H2(+M)				2.250e+13 0.320  0.000
	TROE/ 6.460e-01  1.320e+02 1.315e+03 5.566000e+03/
	LOW/ 3.750e+33  -4.800e+00  1900.096 /
AR/0.7/	H2/2/	H2O/6/	HE/0.7/	CO/1.5/	CO2/2/	CH4/2/	C2H6/3/	
C2H+O<=>CH+CO				5.000e+13 0.000  0.000
C2H+OH<=>H+HCCO				2.000e+13 0.000  0.000
C2H+O2<=>HCO+CO				3.000e+13 0.000 -755.258
C2H+C2H6<=>C2H2+C2H5				3.600e+12 0.000  0.000
C2H+CH4<=>C2H2+CH3				9.970e+09 1.100 576.960
C2H2+H<=>C2H+H2				1.010e+10 1.640 30302.103
C2H+H2O2<=>C2H2+HO2				9.970e+09 1.100 576.960
HCCO+H<=>S-CH2+CO				1.000e+14 0.000  0.000
HCCO+O<=>H+2CO				1.000e+14 0.000  0.000
HCCO+O2<=>OH+2CO				4.200e+10 0.000 853.250
HCCO+CH<=>C2H2+CO				5.000e+13 0.000  0.000
HCCO+T-CH2<=>C2H3+CO				3.000e+13 0.000  0.000
2HCCO<=>C2H2+2CO				1.000e+13 0.000  0.000
C2H2+H(+M)<=>C2H3(+M)				1.709e+10 1.270 2707.935
	TROE/ 2.122e-01  1.000e+00 -1.021e+04 /
	LOW/ 6.340e+31  -4.660e+00  3781.071 /
AR/0.7/	H2/2/	H2O/12/	CO/1.75/	CO2/3.6/	CH4/2/	C2H6/3/	
C2H2+O<=>T-CH2+CO				7.395e+08 1.280 2472.036
C2H2+O<=>HCCO+H				2.958e+09 1.280 2472.036
CHCHO+H<=>CH2CO+H				1.000e+14 0.000  0.000
CHCHO+O2=>CO2+H+HCO				4.800e+03 2.882 -1621.654
CHCHO+O2<=>CHOCHO+O				1.200e+06 2.420 1606.597
CHOCHO<=>CH2O+CO				5.500e+56 -12.600 79963.910
PLOG/0.010	4.200e+53	-12.500	70844.885/
PLOG/0.049	5.100e+54	-12.600	73011.950/
PLOG/0.099	1.000e+55	-12.600	73876.912/
PLOG/0.493	4.500e+55	-12.600	75869.025/
PLOG/0.987	8.000e+55	-12.600	76712.954/
PLOG/4.935	1.100e+56	-12.200	77642.925/
PLOG/9.869	5.500e+56	-12.600	79963.910/
CHOCHO=>2CO+H2				3.400e+59 -13.300 84293.977
PLOG/0.010	6.000e+51	-12.100	71853.967/
PLOG/0.049	1.400e+54	-12.500	74750.956/
PLOG/0.099	1.800e+55	-12.700	76136.950/
PLOG/0.493	1.300e+57	-13.000	78972.036/
PLOG/0.987	6.100e+57	-13.100	80146.989/
PLOG/4.935	5.800e+57	-12.900	81870.937/
PLOG/9.869	3.400e+59	-13.300	84293.977/
CHOCHO<=>2HCO				3.000e+60 -13.300 88993.069
PLOG/0.010	1.000e+42	-9.700	73533.939/
PLOG/0.049	6.000e+48	-11.100	77461.998/
PLOG/0.099	1.700e+51	-11.600	79110.899/
PLOG/0.493	5.300e+55	-12.500	82773.901/
PLOG/0.987	1.900e+57	-12.800	84320.985/
PLOG/4.935	2.200e+59	-13.100	87257.887/
PLOG/9.869	3.000e+60	-13.300	88993.069/
CHOCHO+OH=>HCO+CO+H2O				6.133e+04 2.650 -4586.281
CHOCHO+O=>HCO+CO+OH				5.940e+12 0.000 1868.069
CHOCHO+HO2=>HCO+CO+H2O2				1.700e+13 0.000 16289.914
CHOCHO+HO2=>HOCHO+CO+OH				3.300e-04 3.995 299.952
CHOCHO+O2=>HCO+CO+HO2				3.010e+13 0.000 39150.096
CHOCHO+H<=>CH2O+HCO				5.400e+13 0.000 4299.952
C2H2OH<=>HCCOH+H				5.500e+29 -5.057 52376.912
PLOG/0.040	4.400e+29	-6.153	51382.887/
PLOG/1.000	1.100e+31	-6.153	51382.887/
PLOG/10.000	1.500e+32	-6.168	52239.006/
PLOG/100.000	5.500e+29	-5.057	52376.912/
C2H2OH+H<=>CH2CHO+H				5.000e+13 0.000  0.000
C2H2OH+H<=>HCCOH+H2				2.409e+13 0.000  0.000
C2H2OH+OH<=>HCCOH+H2O				3.011e+13 0.000  0.000
C2H2OH+O<=>CHOCHO+H				5.000e+13 0.000  0.000
C2H2OH+O2<=>CHOCHO+OH				1.800e+12 0.000 -186.902
C2H2OH+O2<=>HOCHO+HCO				1.278e+22 -2.871 8251.195
	 DUPLICATE
C2H2OH+O2<=>HOCHO+HCO				5.895e+15 -1.195 1190.488
	 DUPLICATE
C2H2OH+O2=>HOCHO+H+CO				1.435e+22 -2.528 20345.363
C2H2OH+CH2O<=>C2H3OH+HCO				5.400e+03 2.810 5859.943
C2H2OH+HCO<=>C2H3OH+CO				9.033e+13 0.000  0.000
C2H2OH+CH3<=>HCCOH+CH4				2.050e+13 0.000  0.000
HOCHO(+M)<=>CO+H2O(+M)				7.500e+14 0.000 68710.086
	TROE/ 0.000e+00  0.000e+00 0.000e+00 0.000000e+00/
	LOW/ 4.100e+15  0.000e+00  52979.924 /

HOCHO(+M)<=>CO2+H2(+M)				4.500e+13 0.000 68239.962
	TROE/ 0.000e+00  0.000e+00 0.000e+00 0.000000e+00/
	LOW/ 1.700e+15  0.000e+00  51109.943 /

HOCO+HO2<=>HOCHO+O2				4.000e+11 0.000  0.000
HOCHO+O2<=>OCHO+HO2				3.000e+13 0.000 63000.000
HOCHO+H<=>HOCO+H2				2.300e+02 3.272 4858.031
HOCHO+H<=>OCHO+H2				4.200e+05 2.255 14091.061
HOCHO+O<=>HOCO+OH				5.100e+01 3.422 4216.061
HOCHO+O<=>OCHO+OH				1.700e+05 2.103 9880.019
HOCHO+OH<=>HOCO+H2O				7.800e-06 5.570 -2364.962
HOCHO+OH<=>OCHO+H2O				9.800e-05 4.910 -5066.922
HOCHO+CH3=>CH4+CO+OH				3.900e-07 5.800 2200.048
HOCHO+HO2<=>HOCO+H2O2				4.700e-01 3.975 16787.046
HOCHO+HO2<=>OCHO+H2O2				3.900e+01 3.080 25206.023
CO+OH<=>HOCO				1.100e+20 -2.780 2055.927
PLOG/0.013	1.700e+15	-2.680	859.001/
PLOG/0.132	5.900e+18	-3.350	887.000/
PLOG/1.316	2.600e+20	-3.500	1309.001/
PLOG/13.158	7.100e+20	-3.320	1763.000/
PLOG/131.580	1.100e+20	-2.780	2055.999/
HOCO<=>CO2+H				1.897e+38 -8.047 34239.962
PLOG/0.001	4.758e+18	-3.817	17676.004/
PLOG/0.003	2.225e+20	-4.149	19036.998/
PLOG/0.010	7.564e+21	-4.434	20325.000/
PLOG/0.030	9.107e+24	-5.189	22419.001/
PLOG/0.099	3.144e+29	-6.376	25233.031/
PLOG/0.296	1.150e+32	-7.037	26662.046/
PLOG/0.987	1.069e+36	-8.107	29064.054/
PLOG/2.961	2.438e+36	-8.153	29336.042/
PLOG/9.869	6.663e+35	-7.919	29217.017/
PLOG/29.607	1.723e+38	-8.506	31272.945/
PLOG/98.690	3.007e+41	-9.290	33966.061/
PLOG/296.070	6.767e+36	-7.832	31613.050/
PLOG/986.900	1.897e+38	-8.047	34239.962/
CO+H2O2<=>HOCO+OH				3.600e+04 2.500 28659.895
HOCO+H<=>CO2+H2				3.100e+17 -1.347 554.971
HOCO+H<=>CO+H2O				6.000e+15 -0.525 2125.000
HOCO+O<=>CO2+OH				8.670e+12 0.000  0.000
HOCO+OH<=>CO2+H2O				4.560e+12 0.000 -88.910
	 DUPLICATE
HOCO+OH<=>CO2+H2O				9.540e+06 2.000 -88.910
	 DUPLICATE
HOCO+HO2<=>CO2+H2O2				3.930e+13 0.000  0.000
HOCO+O2<=>CO2+HO2				4.000e+09 1.000  0.000
HOCO+CH3<=>CO2+CH4				1.360e+13 0.000  0.000
HOCO+CH3<=>CH2CO+H2O				2.130e+13 0.000  0.000
C2H3OH(+M)<=>CH3CHO(+M)				9.660e+23 -3.290 59987.572
	TROE/ 5.000e-01  8.630e+02 3.200e+02 1.000000e+05/
	LOW/ 2.870e+43  -8.120e+00  52198.614 /

C2H3OH+O2<=>CH2CHO+HO2				5.310e+11 0.210 39830.067
C2H3OH+O<=>CH2CHO+OH				1.875e+06 1.900 -859.943
C2H3OH+H<=>CH2CHO+H2				1.480e+03 3.077 7219.885
C2H3OH+OH<=>CH2CHO+H2O				3.330e+09 1.100 540.392
C2H3OH+CH3<=>CH2CHO+CH4				2.030e-08 5.900 1052.103
C2H3OH+CH3O2<=>CH2CHO+CH3O2H				3.400e+03 2.500 8922.084
C2H3OH+H<=>C2H2OH+H2				2.470e+07 2.030 15200.048
C2H3OH+H<=>PC2H4OH				3.010e+08 1.577 3669.933
C2H3OH+HO2<=>CH3CHO+HO2				1.490e+05 1.670 6809.990
C2H3OOH<=>CH2CHO+OH				2.220e+17 -0.420 44621.893
PLOG/1.000	2.000e+35	-6.700	47450.048/
PLOG/10.000	1.120e+28	-4.150	46190.010/
PLOG/50.000	2.800e+26	-3.500	46340.105/
PLOG/100.000	2.220e+17	-0.420	44621.893/
C2H3OOH+H<=>C2H3OO+H2				4.300e+10 0.000 1859.943
C2H3OOH+H<=>CH2CHO+H2O				1.200e+10 0.000 1859.943
C2H3OOH+O<=>C2H3OO+OH				8.700e+12 0.000 4750.000
C2H3OOH+OH<=>C2H3OO+H2O				1.100e+12 0.000 -436.902
C2H3OOH+HO2<=>C2H3OO+H2O2				4.100e+04 2.500 10206.023
C2H3OO+H<=>CH2CHO+OH				9.600e+13 0.000  0.000
C2H3OO+O<=>CH2CHO+O2				1.600e+13 0.000 -145.076
C2H3OO+OH<=>C2H3OH+O2				2.000e+15 -0.600  0.000
C2H3OO+OH<=>CH2CHO+HO2				4.000e+11 0.600  0.000
C2H3OOH+O2<=>C2H3OO+HO2				9.000e+13 0.000 40400.096
C2H3OO+CO<=>CH2CHO+CO2				1.600e+05 2.180 17940.010
C2H3OO+CH3<=>CH2CHO+CH3O				5.100e+12 0.000 -1411.090
C2H3OO+CH4<=>C2H3OOH+CH3				4.700e+04 2.500 21000.000
C2H3OO+CH3OH<=>C2H3OOH+CH2OH				4.000e+13 0.000 19400.096
C2H3OO+CH2O<=>C2H3OOH+HCO				4.100e+04 2.500 10206.023
C2H3OO+C2H6<=>C2H3OOH+C2H5				8.600e+00 3.760 17200.048
H2C2+OH<=>CH2CO+H				2.000e+13 0.000  0.000
H2C2+H<=>C2H2+H				1.000e+14 0.000  0.000
C2H3+H<=>H2C2+H2				6.000e+13 0.000  0.000
CH2CO+H<=>CH3CO				2.300e+08 1.610 2626.912
CH3CO+H<=>CH2CO+H2				2.000e+13 0.000  0.000
CH3CO+O<=>CH2CO+OH				2.000e+13 0.000  0.000
CH3CO+CH3<=>CH2CO+CH4				5.000e+13 0.000  0.000
CH3CO+O2<=>CH3CO3				3.150e+59 -15.300 14599.904
PLOG/0.100	1.080e+95	-27.336	25141.013/
PLOG/0.100	1.210e+45	-11.733	5358.293/
PLOG/1.000	9.270e+68	-18.700	16700.000/
PLOG/1.000	6.180e+43	-11.000	5690.010/
PLOG/10.000	3.150e+59	-15.300	14600.000/
PLOG/10.000	2.460e+45	-11.400	6409.990/
CH3CHO+CH3O<=>CH3CO+CH3OH				1.690e+05 2.044 2353.250
	 DUPLICATE
CH3CHO+CH3O<=>CH3CO+CH3OH				9.620e+03 2.501 158.939
	 DUPLICATE
CH3CHO+CH3O<=>CH2CHO+CH3OH				2.650e+01 3.452 5873.327
	 DUPLICATE
CH3CHO+CH3O<=>CH2CHO+CH3OH				5.640e-06 4.930 627.629
	 DUPLICATE
H+HCCOH<=>H2+HCCO				3.000e+07 2.000 1000.000
OH+HCCOH<=>H2O+HCCO				1.000e+07 2.000 1000.000
C2H4O1-2<=>CH3+HCO				3.630e+13 0.000 57200.048
C2H4O1-2<=>CH3CHO				7.407e+12 0.000 53799.952
C2H4O1-2+H<=>C2H3O1-2+H2				8.000e+13 0.000 9679.971
C2H4O1-2+OH<=>C2H3O1-2+H2O				1.780e+13 0.000 3609.943
C2H4O1-2+HO2<=>C2H3O1-2+H2O2				1.130e+13 0.000 30429.971
C2H4O1-2+CH3<=>C2H3O1-2+CH4				1.070e+12 0.000 11830.067
C2H4O1-2+CH3O<=>C2H3O1-2+CH3OH				1.200e+11 0.000 6750.000
C2H4O1-2+CH3O2<=>C2H3O1-2+CH3O2H				1.130e+13 0.000 30429.971
C2H4O1-2+C2H5O2<=>C2H3O1-2+C2H5O2H				1.130e+13 0.000 30429.971
C2H3O1-2+H<=>C2H4O1-2				2.000e+12 0.000  0.000
CH2CHO+H<=>CH3CHO				1.000e+14 0.000  0.000
CH3CO+H<=>CH3CHO				1.000e+14 0.000  0.000
C2H3+O<=>C2H2+OH				1.030e+12 0.200 -427.103
C2H2+OH<=>C2H+H2O				2.630e+06 2.140 17060.229
C2H2+OH<=>HCCOH+H				2.410e+06 2.000 12712.715
PLOG/0.010	2.800e+05	2.280	12420.005/
PLOG/0.025	7.467e+05	2.160	12550.000/
PLOG/0.100	1.776e+06	2.040	12670.005/
PLOG/1.000	2.415e+06	2.000	12709.990/
PLOG/10.000	3.210e+06	1.970	12809.990/
PLOG/100.000	7.347e+06	1.890	13600.000/
C2H2+OH<=>CH2CO+H				1.578e+03 2.560 -844.407
PLOG/0.010	1.578e+03	2.560	-844.500/
PLOG/0.025	1.518e+04	2.280	-292.101/
PLOG/0.100	3.017e+05	1.920	598.100/
PLOG/1.000	7.528e+06	1.550	2105.999/
PLOG/10.000	5.101e+06	1.650	3400.000/
PLOG/100.000	1.457e+04	2.450	4477.008/
C2H2+OH<=>CH3+CO				4.757e+05 1.680 -329.828
PLOG/0.010	4.757e+05	1.680	-329.799/
PLOG/0.025	4.372e+06	1.400	226.500/
PLOG/0.100	7.648e+07	1.050	1115.000/
PLOG/1.000	1.277e+09	0.730	2578.991/
PLOG/10.000	4.312e+08	0.920	3735.994/
PLOG/100.000	8.250e+05	1.770	4696.989/
C2H2+OH<=>C2H2OH				6.200e+20 -2.800 2831.023
PLOG/0.010	2.900e+64	-18.570	10009.011/
PLOG/0.010	2.600e+33	-7.360	6391.993/
PLOG/0.025	4.700e+59	-16.870	9086.998/
PLOG/0.025	4.400e+32	-7.020	5933.007/
PLOG/0.100	1.200e+28	-5.560	3723.996/
PLOG/0.100	6.400e+42	-9.960	11736.998/
PLOG/1.000	1.900e+44	-11.380	6298.996/
PLOG/1.000	3.500e+31	-6.200	6634.990/
PLOG/10.000	1.500e+24	-4.060	3260.994/
PLOG/10.000	4.500e+31	-5.920	8760.994/
PLOG/100.000	6.200e+20	-2.800	2830.999/
PLOG/100.000	1.600e+29	-4.910	9734.011/
CH2CO+H<=>HCCO+H2				2.802e+15 -0.171 8783.222
CH2CO+H<=>CH3+CO				7.800e+08 1.450 2780.115
CH2CO+O<=>HCCO+OH				1.000e+13 0.000 7999.522
CH2CO+O<=>T-CH2+CO2				1.750e+12 0.000 1350.382
CH2CO+OH=>HCCO+H2O				3.930e+04 2.450 4523.901
	 DUPLICATE
CH2CO+OH=>HCCO+H2O				2.600e+02 2.700 1278.920
	 DUPLICATE
C2H3+H<=>C2H4				1.250e+19 -1.592 1961.042
PLOG/0.001	1.193e+26	-5.021	3089.747/
PLOG/0.010	1.053e+27	-5.000	3073.375/
PLOG/0.100	2.107e+28	-5.085	3485.779/
PLOG/1.000	8.820e+29	-5.236	5080.163/
PLOG/10.000	3.624e+22	-2.791	2636.998/
PLOG/100.000	1.250e+19	-1.592	1961.090/
C2H3+H<=>C2H2+H2				3.000e+13 0.000  0.000
C2H3+O<=>CH2CHO				1.030e+13 0.210 -427.820
C2H3+OH<=>C2H2+H2O				5.000e+12 0.000  0.000
C2H3+O2<=>C2H3OO				3.410e+39 -8.040 14359.943
PLOG/0.010	1.550e+24	-5.450	9661.998/
PLOG/0.010	1.780e-09	4.150	-4707.003/
PLOG/0.100	3.480e+56	-15.010	19159.990/
PLOG/0.100	2.360e+22	-4.520	2839.006/
PLOG/0.316	1.250e+64	-16.970	21290.010/
PLOG/0.316	2.000e+26	-5.430	2725.000/
PLOG/1.000	3.340e+61	-15.790	20150.000/
PLOG/1.000	6.130e+28	-5.890	3153.991/
PLOG/3.160	7.340e+53	-13.110	17300.000/
PLOG/3.160	2.140e+29	-5.800	3520.005/
PLOG/10.000	4.160e+48	-11.210	16000.000/
PLOG/10.000	3.480e+28	-5.370	3635.994/
PLOG/31.600	2.330e+43	-9.380	14809.990/
PLOG/31.600	3.320e+27	-4.950	3609.990/
PLOG/100.000	3.410e+39	-8.040	14359.990/
PLOG/100.000	1.030e+27	-4.720	3679.995/
C2H3+O2<=>CHCHO+OH				1.650e+30 -5.350 18429.971
PLOG/0.010	3.910e+11	-0.110	2130.999/
PLOG/0.010	9.910e+11	-0.660	-0.600/
PLOG/0.100	1.130e+09	0.550	46.000/
PLOG/0.100	6.940e+14	-1.160	4541.993/
PLOG/0.316	8.460e+08	0.560	 0.700/
PLOG/0.316	2.790e+13	-0.720	3478.991/
PLOG/1.000	2.750e+14	-1.830	 4.600/
PLOG/1.000	4.990e+11	-0.140	1995.000/
PLOG/3.160	2.580e+20	-2.840	7529.995/
PLOG/3.160	2.350e+10	0.230	1573.000/
PLOG/10.000	9.180e+14	-2.260	-0.400/
PLOG/10.000	1.700e+14	-0.820	4450.000/
PLOG/31.600	6.110e+25	-4.210	13050.000/
PLOG/31.600	1.420e+11	0.050	3773.996/
PLOG/100.000	1.650e+30	-5.350	18429.995/
PLOG/100.000	3.170e+11	-0.020	5338.002/
C2H3+O2<=>CH2CHO+O				9.270e+25 -3.800 13909.895
PLOG/0.010	7.160e+20	-2.670	6741.993/
PLOG/0.010	1.240e+10	0.620	-277.600/
PLOG/0.100	7.020e+20	-2.670	6713.002/
PLOG/0.100	1.290e+10	0.620	-247.701/
PLOG/0.316	8.970e+20	-2.700	6723.996/
PLOG/0.316	1.510e+10	0.600	-162.500/
PLOG/1.000	6.450e+20	-2.650	6489.006/
PLOG/1.000	1.840e+10	0.580	38.400/
PLOG/3.160	4.090e+20	-2.530	6405.999/
PLOG/3.160	8.860e+09	0.670	248.000/
PLOG/10.000	1.600e+23	-3.220	8696.989/
PLOG/10.000	6.670e+09	0.720	778.100/
PLOG/31.600	2.850e+25	-3.770	11529.995/
PLOG/31.600	1.430e+09	0.920	1219.001/
PLOG/100.000	9.270e+25	-3.800	13909.990/
PLOG/100.000	7.140e+07	1.280	1400.999/
C2H3+O2<=>C2H2+HO2				1.060e+17 -1.450 12229.924
PLOG/0.010	1.080e+07	1.280	3321.989/
PLOG/0.010	4.760e+01	2.750	-796.401/
PLOG/0.100	7.750e+06	1.330	3215.989/
PLOG/0.100	5.160e+01	2.730	-768.301/
PLOG/0.316	1.210e+07	1.270	3310.994/
PLOG/0.316	5.550e+01	2.730	-658.499/
PLOG/1.000	2.150e+07	1.190	3366.993/
PLOG/1.000	4.600e+01	2.760	-492.801/
PLOG/3.160	1.130e+08	1.000	3695.005/
PLOG/3.160	3.750e+00	3.070	-600.999/
PLOG/10.000	1.310e+11	0.120	5871.989/
PLOG/10.000	5.480e+00	3.070	85.700/
PLOG/31.600	1.190e+09	0.820	5616.993/
PLOG/31.600	4.470e+08	0.000	955.000/
PLOG/100.000	1.060e+17	-1.450	12229.995/
PLOG/100.000	2.020e+01	2.940	1847.000/
C2H3+O2<=>CHOCHO+H				3.280e+31 -5.760 16250.000
PLOG/0.010	4.790e+14	-1.030	912.000/
PLOG/0.010	2.800e-04	4.040	-7019.001/
PLOG/0.100	5.030e+14	-1.040	922.500/
PLOG/0.100	3.450e-04	4.010	-6978.011/
PLOG/0.316	6.430e+14	-1.070	982.899/
PLOG/0.316	9.730e-04	3.890	-6767.997/
PLOG/1.000	3.730e+15	-1.290	1440.999/
PLOG/1.000	4.980e-01	3.150	-5496.009/
PLOG/3.160	2.440e+18	-2.130	3234.011/
PLOG/3.160	1.340e+05	1.670	-2930.999/
PLOG/10.000	1.300e+15	-1.090	2392.997/
PLOG/10.000	4.500e+15	-3.080	-4835.994/
PLOG/31.600	3.570e+33	-6.500	14909.990/
PLOG/31.600	3.840e+10	0.220	941.300/
PLOG/100.000	3.280e+31	-5.760	16250.000/
PLOG/100.000	2.750e+08	0.830	857.600/
C2H3+O2<=>CH2CO+OH				1.660e+10 0.360 12010.038
PLOG/0.010	8.660e+02	2.410	6060.994/
PLOG/0.010	1.820e-01	3.120	1330.999/
PLOG/0.100	8.910e+02	2.410	6078.011/
PLOG/0.100	2.070e-01	3.110	1383.000/
PLOG/0.316	9.430e+02	2.400	6111.998/
PLOG/0.316	2.710e-01	3.080	1495.999/
PLOG/1.000	1.060e+03	2.390	6179.995/
PLOG/1.000	5.260e-01	3.010	1777.000/
PLOG/3.160	1.090e+03	2.380	6178.991/
PLOG/3.160	1.370e+00	2.900	2225.000/
PLOG/10.000	1.390e+03	2.360	6073.996/
PLOG/10.000	4.190e-01	2.930	2052.000/
PLOG/31.600	2.490e+06	1.420	8479.995/
PLOG/31.600	1.190e-04	4.210	2043.000/
PLOG/100.000	1.660e+10	0.360	12009.990/
PLOG/100.000	1.300e-03	3.970	3414.006/
C2H3+O2<=>CH2O+HCO				3.030e+33 -6.280 16000.000
PLOG/0.010	2.770e+36	-7.600	12640.010/
PLOG/0.010	5.040e+15	-1.280	515.301/
PLOG/0.100	2.700e+36	-7.600	12609.990/
PLOG/0.100	5.100e+15	-1.280	513.000/
PLOG/0.316	2.170e+36	-7.570	12490.010/
PLOG/0.316	5.340e+15	-1.290	520.600/
PLOG/1.000	3.030e+35	-7.320	11820.005/
PLOG/1.000	6.760e+15	-1.310	645.700/
PLOG/3.160	1.590e+36	-7.470	12459.990/
PLOG/3.160	1.050e+16	-1.360	1065.999/
PLOG/10.000	5.760e+35	-7.200	13429.995/
PLOG/10.000	2.840e+15	-1.180	1429.001/
PLOG/31.600	3.540e+20	-2.570	5578.011/
PLOG/31.600	1.140e+69	-19.230	14759.990/
PLOG/100.000	3.030e+33	-6.280	16000.000/
PLOG/100.000	4.680e+10	0.190	830.600/
C2H3+O2=>CH2O+H+CO				7.070e+33 -6.280 16000.000
PLOG/0.010	6.470e+36	-7.600	12640.010/
PLOG/0.010	1.180e+16	-1.280	515.301/
PLOG/0.100	6.290e+36	-7.600	12609.990/
PLOG/0.100	1.190e+16	-1.280	513.000/
PLOG/0.316	5.060e+36	-7.570	12490.010/
PLOG/0.316	1.260e+16	-1.290	520.600/
PLOG/1.000	7.070e+35	-7.320	11820.005/
PLOG/1.000	1.580e+16	-1.310	645.700/
PLOG/3.160	3.720e+36	-7.470	12459.990/
PLOG/3.160	2.440e+16	-1.360	1065.999/
PLOG/10.000	1.340e+36	-7.200	13429.995/
PLOG/10.000	6.640e+15	-1.180	1429.001/
PLOG/31.600	8.260e+20	-2.570	5578.011/
PLOG/31.600	2.660e+69	-19.230	14759.990/
PLOG/100.000	7.070e+33	-6.280	16000.000/
PLOG/100.000	1.090e+11	0.190	830.600/
C2H3+O2<=>CO+CH3O				5.790e+32 -6.450 16809.990
PLOG/0.010	8.190e+18	-2.660	3201.004/
PLOG/0.010	1.290e+09	0.180	-1717.000/
PLOG/0.100	4.060e+14	-1.320	885.801/
PLOG/0.100	5.990e+11	-2.930	-9564.006/
PLOG/1.000	1.030e+11	-0.330	-747.801/
PLOG/1.000	5.770e+21	-3.540	4771.989/
PLOG/3.160	1.890e+12	-3.000	-8995.005/
PLOG/3.160	4.990e+15	-1.620	1849.001/
PLOG/10.000	1.930e+24	-5.630	 1.800/
PLOG/10.000	9.330e+16	-1.960	3323.996/
PLOG/31.600	1.100e+18	-2.220	5178.011/
PLOG/31.600	1.020e+72	-20.690	15859.990/
PLOG/100.000	5.790e+32	-6.450	16809.990/
PLOG/100.000	1.100e+09	0.310	1024.001/
C2H3+O2<=>CO2+CH3				1.210e+32 -6.320 16190.010
PLOG/0.010	2.370e+35	-7.760	12629.995/
PLOG/0.010	6.270e+13	-1.160	406.300/
PLOG/0.100	1.730e+35	-7.720	12520.005/
PLOG/0.100	6.240e+13	-1.160	401.401/
PLOG/0.316	4.470e+34	-7.550	12140.010/
PLOG/0.316	6.120e+13	-1.160	397.000/
PLOG/1.000	7.250e+31	-6.700	10440.010/
PLOG/1.000	5.320e+13	-1.140	446.699/
PLOG/3.160	3.630e+35	-7.750	12829.995/
PLOG/3.160	1.450e+14	-1.260	987.701/
PLOG/10.000	2.090e+35	-7.530	14050.000/
PLOG/10.000	5.020e+13	-1.110	1409.001/
PLOG/31.600	3.840e+18	-2.440	5408.007/
PLOG/31.600	1.400e+70	-20.110	15429.995/
PLOG/100.000	1.210e+32	-6.320	16190.010/
PLOG/100.000	9.210e+08	0.250	855.301/
C2H3OO<=>CHCHO+OH				9.540e+195 -52.270 163500.000
PLOG/0.010	3.640e+49	-12.130	67419.933/
PLOG/0.010	1.170e+56	-14.810	60700.048/
PLOG/0.100	1.440e+36	-9.920	41219.885/
PLOG/0.100	2.320e+40	-9.390	50419.933/
PLOG/0.316	4.180e+40	-10.530	43669.933/
PLOG/0.316	1.610e+43	-9.990	50289.914/
PLOG/1.000	3.790e+46	-10.720	51900.096/
PLOG/1.000	2.330e+124	-36.770	70099.904/
PLOG/3.160	1.600e+49	-11.240	54150.096/
PLOG/3.160	1.880e+103	-29.490	65409.895/
PLOG/10.000	2.380e+51	-11.640	56979.924/
PLOG/10.000	5.960e+86	-23.810	62169.933/
PLOG/31.600	2.000e+54	-12.220	61840.105/
PLOG/31.600	1.510e+57	-13.940	55390.057/
PLOG/100.000	9.540e+195	-52.270	163500.000/
PLOG/100.000	1.790e+34	-6.400	50000.000/
C2H3OO<=>CH2CHO+O				4.300e+48 -10.310 56090.105
PLOG/0.010	2.700e+180	-48.190	169299.952/
PLOG/0.010	1.470e+30	-6.640	41109.943/
PLOG/0.100	9.650e-12	5.960	22890.010/
PLOG/0.100	3.900e+38	-8.690	42770.076/
PLOG/0.316	4.570e+47	-11.210	47049.952/
PLOG/0.316	3.950e+22	-3.710	36270.076/