ELEMENTS
N  AR O  H  HE C  
END
SPECIES
N2                AR                H                 O2                O                 OH                H2                H2O               
HE                HO2               H2O2              CO                CO2               HCO               C                 CH                
TXCH2             CH3               CH2O              HCCO              C2H               CH2CO             C2H2              SXCH2             
CH3OH             CH2OH             CH3O              CH4               CH3O2             C2H3              C2H4              C2H5              
HCCOH             CH2CHO            CH3CHO            H2C2              C2H5O             C2H6              C2O               C2H5O2H           
CH3CO3            CH2O2H            HCOH              CHCHO             CHOCHO            C2H2OH            HOCHO             C2H3OOH           
C2H3OO            C2H3OH            HOCO              C2H4O1            CH2COOH           CH2CO2            CH3COH            SC2H2OH           
HOCH2CO           C2H5OH            CH3CHOH           CH3O2H            O2CHO             HO2CHO            OCHO              C2H3O1            
CH3CO             C2H4O2H           C2H5O2            CH3CO2            PC2H4OH           O2CH2CHO          HO2CH2CO          N2H2              
NNH               NH2               NH                HNO               HONO              N                 H2NO              N2O               
NH3               NO                NO2               N2H3              HCN               HNC               CN                HNCO              
NCO               NCN               CH3NH2            H2CN              C5H5N             C5H4N             C5H5NO            C5H4NO            
C5H4NO2           PYRLYL            BNC4H4CO          C3H3ONCO          C4H4CN            CHCHCN            C4H5N             PYRLNE            
CH2CHCN           C2N2              HNCN              HOCN              CH3CN             CH2CN             HCNO              
END
REACTIONS
H+O2<=>O+OH                              1.040e+14    0.000  15286.09
O+H2<=>H+OH                              3.818e+12    0.000   7947.90
     DUPLICATE
O+H2<=>H+OH                              8.792e+14    0.000  19169.93
     DUPLICATE
H2+OH<=>H2O+H                            2.160e+08    1.510   3429.97
2OH<=>O+H2O                              3.340e+04    2.420  -1929.97
H2+M<=>2H+M                              4.577e+19   -1.400 104380.02
H2/2.50/ H2O/12.00/ CO/1.90/ CO2/3.80/ 
H2+AR<=>2H+AR                            5.840e+18   -1.100 104380.02
H2+HE<=>2H+HE                            5.840e+18   -1.100 104380.02
2O+M<=>O2+M                              6.165e+15   -0.500      0.00
H2/2.50/ H2O/12.00/ CO/1.90/ CO2/3.80/ 
2O+AR<=>O2+AR                            1.886e+13    0.000  -1788.00
2O+HE<=>O2+HE                            1.886e+13    0.000  -1788.00
O+H+M<=>OH+M                             4.714e+18   -1.000      0.00
AR/0.75/ H2/2.50/ H2O/12.00/ HE/0.75/ CO/1.90/ CO2/3.80/ 
H2O+M<=>H+OH+M                           6.064e+27   -3.322 120789.91
N2/2.00/ O2/1.50/ H2/3.00/ HE/1.10/ CO/1.90/ CO2/3.80/ 
2H2O<=>H+OH+H2O                          1.006e+26   -2.440 120179.97
H+O2(+M)<=>HO2(+M)                       4.651e+12    0.440      0.00
AR/0.67/ O2/0.78/ H2/2.00/ H2O/14.00/ HE/0.80/ CO/1.90/ CO2/3.80/ 
     LOW  /  6.366e+20   -1.720    524.86 /
!     FCCHECK/     0.5     1e-30    0.5     1e+30      0         0
     TROE/     0.5    1e-30     1e+30        /
HO2+H<=>H2+O2                            2.750e+06    2.090  -1451.00
HO2+H<=>2OH                              7.079e+13    0.000    294.93
HO2+O<=>O2+OH                            2.850e+10    1.000   -723.95
OH+HO2<=>H2O+O2                          1.930e+20   -2.490    584.13
     DUPLICATE
OH+HO2<=>H2O+O2                          1.210e+09    1.240  -1307.60
     DUPLICATE
2HO2<=>H2O2+O2                           1.214e+10    0.422  -1480.40
     DUPLICATE
2HO2<=>H2O2+O2                           1.688e+16   -0.681  12931.64
     DUPLICATE
H2O2(+M)<=>2OH(+M)                       2.000e+12    0.900  48749.04
N2/1.50/ O2/1.20/ H2/3.70/ H2O/7.50/ HE/0.65/ H2O2/7.70/ CO/2.80/ CO2/1.60/ 
     LOW  /  2.490e+24   -2.300  48750.00 /
!     FCCHECK/    0.57     1e-30   0.43     1e+30      0         0
     TROE/    0.43    1e-30     1e+30        /
H2O2+H<=>H2O+OH                          2.410e+13    0.000   3969.89
H2O2+H<=>HO2+H2                          4.820e+13    0.000   7950.05
H2O2+O<=>OH+HO2                          9.550e+06    2.000   3969.89
H2O2+OH<=>HO2+H2O                        1.740e+12    0.000    318.12
     DUPLICATE
H2O2+OH<=>HO2+H2O                        7.590e+13    0.000   7270.08
     DUPLICATE
CO+O(+M)<=>CO2(+M)                       1.800e+10    0.000   2385.28
AR/0.70/ H2/2.00/ H2O/12.00/ CO/1.75/ CO2/3.60/ 
     LOW  /  1.550e+24   -2.790   4192.16 /
     TROE/       0        0         0         0 /
CO+OH<=>CO2+H                            2.300e+07    1.350    973.95
PLOG /     0.013 2.100e+05    1.900  -1064.00 /
PLOG /     0.132 2.500e+05    1.880  -1043.00 /
PLOG /     1.315 8.700e+05    1.730   -685.00 /
PLOG /    13.158 6.800e+06    1.480     48.00 /
PLOG /   131.580 2.300e+07    1.350    974.00 /
CO+O2<=>CO2+O                            1.050e+12    0.000  47700.05
CO+HO2<=>CO2+OH                          1.570e+05    2.180  17942.64
HCO+H<=>CO+H2                            1.200e+14    0.000      0.00
HCO+O<=>CO+OH                            3.020e+13    0.000      0.00
HCO+O<=>CO2+H                            3.000e+13    0.000      0.00
HCO+OH<=>CO+H2O                          3.011e+13    0.000      0.00
HCO+CH3<=>CO+CH4                         2.650e+13    0.000      0.00
2HCO<=>CO+CH2O                           2.700e+13    0.000      0.00
HCO+M<=>CO+H+M                           4.748e+11    0.659  14873.80
H2/2.00/ CO/1.75/ CO2/3.60/ CH4/2.00/ C2H6/3.00/ 
HCO+O2<=>CO+HO2                          1.200e+10    0.807   -727.06
C+OH<=>CO+H                              5.000e+13    0.000      0.00
C+O2<=>CO+O                              5.800e+13    0.000    576.00
CH+H<=>C+H2                              1.650e+14    0.000      0.00
CH+O<=>CO+H                              5.700e+13    0.000      0.00
CH+OH<=>HCO+H                            3.000e+13    0.000      0.00
CH+H2<=>TXCH2+H                          1.080e+14    0.000   3109.47
CH+H2(+M)<=>CH3(+M)                      1.970e+12    0.430   -370.46
AR/0.70/ H2/2.00/ H2O/12.00/ CO/1.75/ CO2/3.60/ CH4/2.00/ C2H6/3.00/ 
     LOW  /  4.820e+25   -2.800    590.34 /
     TROE/   0.578      122      2535      9365 /
CH+H2O<=>CH2O+H                          5.710e+12    0.000   -755.26
CH+O2<=>HCO+O                            6.710e+13    0.000      0.00
CH+CO(+M)<=>HCCO(+M)                     5.000e+13    0.000      0.00
AR/0.70/ H2/2.00/ H2O/12.00/ CO/1.75/ CO2/3.60/ CH4/2.00/ C2H6/3.00/ 
     LOW  /  2.690e+28   -3.740   1935.95 /
     TROE/  0.5757      237      1652      5069 /
CH+CO2<=>HCO+CO                          1.900e+14    0.000  15791.11
CO+H2(+M)<=>CH2O(+M)                     4.300e+07    1.500  79600.86
AR/0.70/ H2/2.00/ H2O/12.00/ CO/1.75/ CO2/3.60/ CH4/2.00/ C2H6/3.00/ 
     LOW  /  5.070e+27   -3.420  84349.90 /
     TROE/   0.932      197      1540     10300 /
HCO+H(+M)<=>CH2O(+M)                     1.090e+12    0.480   -260.52
AR/0.70/ H2/2.00/ H2O/12.00/ CO/1.75/ CO2/3.60/ CH4/2.00/ C2H6/3.00/ 
     LOW  /  2.470e+24   -2.570    425.43 /
     TROE/  0.7824      271      2755      6570 /
TXCH2+H(+M)<=>CH3(+M)                    6.000e+14    0.000      0.00
AR/0.70/ H2/2.00/ H2O/12.00/ CO/1.75/ CO2/3.60/ CH4/2.00/ C2H6/3.00/ 
     LOW  /  1.040e+26   -2.760   1598.95 /
     TROE/   0.562       91      5836      8552 /
TXCH2+O<=>HCO+H                          8.000e+13    0.000      0.00
TXCH2+OH<=>CH2O+H                        2.000e+13    0.000      0.00
TXCH2+OH<=>CH+H2O                        1.130e+07    2.000   2999.52
TXCH2+H2<=>H+CH3                         5.000e+05    2.000   7229.92
TXCH2+O2=>CO2+2H                         5.800e+12    0.000   1500.96
TXCH2+O2<=>CH2O+O                        2.400e+12    0.000   1500.96
TXCH2+O2=>OH+H+CO                        5.000e+12    0.000   1500.96
TXCH2+HO2<=>CH2O+OH                      2.000e+13    0.000      0.00
TXCH2+C<=>C2H+H                          5.000e+13    0.000      0.00
TXCH2+CO(+M)<=>CH2CO(+M)                 8.100e+11    0.500   4510.04
AR/0.70/ H2/2.00/ H2O/12.00/ CO/1.75/ CO2/3.60/ CH4/2.00/ C2H6/3.00/ 
     LOW  /  2.690e+33   -5.110   7096.08 /
     TROE/  0.5907      275      1226      5185 /
TXCH2+CH<=>C2H2+H                        4.000e+13    0.000      0.00
2TXCH2<=>C2H2+H2                         1.600e+15    0.000  11943.12
2TXCH2=>C2H2+2H                          2.000e+14    0.000  10989.48
SXCH2+N2<=>TXCH2+N2                      1.500e+13    0.000    599.90
SXCH2+AR<=>TXCH2+AR                      9.000e+12    0.000    599.90
SXCH2+H<=>CH+H2                          3.000e+13    0.000      0.00
SXCH2+O<=>CO+H2                          1.500e+13    0.000      0.00
SXCH2+O<=>HCO+H                          1.500e+13    0.000      0.00
SXCH2+OH<=>CH2O+H                        3.000e+13    0.000      0.00
SXCH2+H2<=>CH3+H                         7.000e+13    0.000      0.00
SXCH2+O2<=>H+OH+CO                       2.800e+13    0.000      0.00
SXCH2+O2<=>CO+H2O                        1.200e+13    0.000      0.00
CH3OH(+M)<=>SXCH2+H2O(+M)                3.121e+18   -1.017  91712.00

     LOW  /  1.430e+47   -8.227  99417.07 /
     TROE/  0.9922    47310       943     47110 /
SXCH2+H2O<=>TXCH2+H2O                    3.000e+13    0.000      0.00
SXCH2+H2O=>H2+CH2O                       6.820e+10    0.250   -934.51
SXCH2+CO<=>TXCH2+CO                      9.000e+12    0.000      0.00
SXCH2+CO2<=>TXCH2+CO2                    7.000e+12    0.000      0.00
SXCH2+CO2<=>CH2O+CO                      1.400e+13    0.000      0.00
CH2OH(+M)<=>CH2O+H(+M)                   7.370e+10    0.811  39585.09
AR/0.85/ H2/2.00/ H2O/6.00/ HE/0.67/ CO/1.50/ CO2/2.00/ CH2O/2.50/ CH3OH/3.00/ 
CH4/2.00/ C2H6/3.00/ 
     LOW  /  3.500e+21   -1.990  24000.00 /
     TROE/   0.844      900         1      3315 /
CH3O(+M)<=>CH2O+H(+M)                    1.130e+10    1.210  24084.85
AR/0.85/ H2/2.00/ H2O/6.00/ HE/0.67/ CO/1.50/ CO2/2.00/ CH3OH/3.00/ CH4/2.00/ 
C2H6/3.00/ 
     LOW  /  6.022e+16   -0.547  18023.90 /
     TROE/   0.341       28      1000      2339 /
CH2O+H<=>HCO+H2                          5.740e+07    1.900   2741.40
CH2O+O<=>HCO+OH                          3.900e+13    0.000   3539.67
CH2O+OH<=>HCO+H2O                        3.430e+09    1.180   -446.94
CH2O+O2<=>HCO+HO2                        1.000e+14    0.000  40000.00
CH2O+HO2<=>HCO+H2O2                      5.600e+06    2.000  12000.48
CH2O+CH<=>CH2CO+H                        9.460e+13    0.000   -516.25
CH3+H(+M)<=>CH4(+M)                      6.920e+13    0.180      0.00
AR/0.70/ H2/2.00/ H2O/6.00/ CO/1.50/ CO2/2.00/ CH4/5.00/ C2H6/3.00/ 
     LOW  /  3.470e+38   -6.300   5074.09 /
     TROE/   0.783       74      2941      6964 /
CH3+O<=>CH2O+H                           5.540e+13    0.050   -135.99
CH3+O<=>H+H2+CO                          8.310e+12    0.050   -135.99
CH3OH(+M)<=>CH3+OH(+M)                   2.084e+18   -0.615  92540.63

     LOW  /  1.500e+43   -6.995  97992.11 /
     TROE/  0.7656    59.51      1910      9374 /
CH3+OH<=>TXCH2+H2O                       4.293e+04    2.568   3997.85
CH3+OH<=>CH2O+H2                         3.502e+05    1.441  -3244.02
PLOG /     0.010 3.502e+05    1.441  -3244.00 /
PLOG /     0.100 8.854e+05    1.327  -2975.00 /
PLOG /     1.000 1.650e+07    0.973  -2010.00 /
PLOG /    10.000 5.374e+09    0.287    280.00 /
PLOG /   100.000 9.494e+18   -2.199   9769.00 /
CH3+OH<=>SXCH2+H2O                       4.936e+14   -0.669   -445.75
PLOG /     0.010 4.936e+14   -0.669   -445.80 /
PLOG /     0.100 1.207e+15   -0.778   -175.60 /
PLOG /     1.000 5.282e+17   -1.518   1772.00 /
PLOG /    10.000 4.788e+23   -3.155   7003.01 /
PLOG /   100.000 8.433e+19   -1.962   8244.00 /
CH3+OH<=>HCOH+H2                         7.250e+20   -2.402   9639.10
PLOG /     0.010 8.674e+08    0.787  -3046.01 /
PLOG /     0.100 3.115e+09    0.630  -2669.00 /
PLOG /     1.000 1.557e+11    0.156  -1368.00 /
PLOG /    10.000 1.704e+21   -2.641   6412.00 /
PLOG /   100.000 7.250e+20   -2.402   9639.01 /
HCOH+O2=>CO2+H+OH                        5.000e+12    0.000      0.00
HCOH+O2<=>CO2+H2O                        3.000e+13    0.000      0.00
HCOH+O=>CO2+2H                           5.000e+13    0.000      0.00
HCOH+O=>CO+OH+H                          3.000e+13    0.000      0.00
HCOH+H<=>CH2O+H                          2.000e+14    0.000      0.00
HCOH+OH<=>HCO+H2O                        2.000e+13    0.000      0.00
CH3+O2<=>CH3O+O                          7.546e+12    0.000  28320.03
CH3+O2<=>CH2O+OH                         2.641e+00    3.283   8104.92
CH3+O2(+M)<=>CH3O2(+M)                   7.812e+09    0.900      0.00

     LOW  /  6.850e+24   -3.000      0.00 /
     TROE/     0.6     1000        70      1700 /
CH3+HO2<=>CH3O+OH                        1.070e+12    0.273   -693.12
CH3+HO2<=>CH4+O2                         1.200e+05    2.227  -3021.03
CH3+H2O2<=>CH4+HO2                       2.450e+04    2.470   5179.25
CH3+C<=>C2H2+H                           5.000e+13    0.000      0.00
CH3+CH<=>C2H3+H                          3.000e+13    0.000      0.00
CH3+CH2O<=>CH4+HCO                       3.320e+03    2.810   5860.42
CH3+TXCH2<=>C2H4+H                       2.000e+13    0.000      0.00
CH3+SXCH2<=>C2H4+H                       2.000e+13    0.000      0.00
2CH3<=>H+C2H5                            4.740e+12    0.105  10664.20
PLOG /     0.010 4.740e+12    0.105  10664.29 /
PLOG /     0.100 2.570e+13   -0.096  11406.09 /
PLOG /     1.000 3.100e+14   -0.362  13372.49 /
PLOG /    10.000 2.150e+10    0.885  13532.51 /
PLOG /   100.000 1.032e+02    3.230  11236.09 /
CH3O2+O<=>CH3O+O2                        3.600e+13    0.000      0.00
CH3O2+H<=>CH3O+OH                        9.600e+13    0.000      0.00
CH3O2+OH<=>CH3OH+O2                      6.000e+13    0.000      0.00
CH3O2+HO2<=>CH3O2H+O2                    4.940e+11    0.000  -1570.03
CH3O2+H2O2<=>CH3O2H+HO2                  2.410e+12    0.000   9935.95
CH3O2+CH3<=>2CH3O                        5.080e+12    0.000  -1411.09
2CH3O2=>CH2O+CH3OH+O2                    3.110e+14   -1.610  -1050.91
2CH3O2=>O2+2CH3O                         1.400e+16   -1.610   1859.94
H2+CH3O2<=>H+CH3O2H                      1.500e+14    0.000  26030.11
CH2O2H<=>CH2O+OH                         3.000e+14    0.000   1500.00
CH3O+H(+M)<=>CH3OH(+M)                   2.430e+12    0.520     50.19
AR/0.70/ H2/2.00/ H2O/12.00/ CO/1.75/ CO2/3.60/ CH4/2.00/ C2H6/3.00/ 
     LOW  /  4.660e+41   -7.440  14079.83 /
     TROE/     0.7      100     90000     10000 /
CH3O+H<=>CH2OH+H                         4.150e+07    1.630   1924.00
CH3O+H<=>CH2O+H2                         2.000e+13    0.000      0.00
CH3+OH<=>H+CH3O                          1.186e+09    1.016  11940.01
PLOG /     0.010 1.186e+09    1.016  11940.01 /
PLOG /     0.100 1.188e+09    1.016  11940.01 /
PLOG /     1.000 1.230e+09    1.011  11950.00 /
PLOG /    10.000 1.798e+09    0.965  12059.99 /
PLOG /   100.000 5.242e+10    0.551  13070.00 /
CH3O+H<=>SXCH2+H2O                       2.620e+14   -0.230   1070.75
CH3O+O<=>CH2O+OH                         1.000e+13    0.000      0.00
CH3O+OH<=>CH2O+H2O                       3.619e+02    2.498   1889.34
CH3O+O2<=>CH2O+HO2                       2.170e+10    0.000   1748.80
CH3OH(+M)<=>CH2OH+H(+M)                  7.896e-03    5.038  84467.49

     LOW  /  3.390e+42   -7.244 105230.40 /
     TROE/  0.6843    41490     37050      3980 /
CH2OH+H<=>CH2O+H2                        2.000e+13    0.000      0.00
CH3+OH<=>CH2OH+H                         1.621e+10    0.965   3210.09
PLOG /     0.010 1.054e+10    0.965   3209.99 /
PLOG /     0.100 1.175e+10    0.950   3250.00 /
PLOG /     1.000 3.046e+10    0.833   3570.01 /
PLOG /    10.000 9.912e+12    0.134   5640.01 /
PLOG /   100.000 2.334e+14   -0.186   8600.00 /
CH2OH+H<=>SXCH2+H2O                      3.280e+13   -0.090    609.47
CH2OH+O<=>CH2O+OH                        1.000e+13    0.000      0.00
CH2OH+OH<=>CH2O+H2O                      5.000e+12    0.000      0.00
CH2OH+O2<=>CH2O+HO2                      1.800e+13    0.000    901.05
CH4+H<=>CH3+H2                           6.600e+08    1.620  10841.30
CH4+O<=>CH3+OH                           1.020e+09    1.500   8599.43
CH4+OH<=>CH3+H2O                         1.000e+08    1.600   3119.03
CH4+CH<=>C2H4+H                          6.000e+13    0.000      0.00
CH4+TXCH2<=>2CH3                         2.460e+06    2.000   8269.60
CH4+SXCH2<=>2CH3                         1.600e+13    0.000   -571.22
CH3OH+H<=>CH2OH+H2                       1.700e+07    2.100   4870.94
CH3OH+H<=>CH3O+H2                        4.200e+06    2.100   4870.94
CH3OH+O<=>CH2OH+OH                       3.880e+05    2.500   3099.90
CH3OH+O<=>CH3O+OH                        1.300e+05    2.500   5000.00
CH3OH+OH<=>CH2OH+H2O                     1.440e+06    2.000   -841.30
CH3OH+OH<=>CH3O+H2O                      6.300e+06    2.000   1500.96
CH3OH+CH3<=>CH2OH+CH4                    3.000e+07    1.500   9940.25
CH3OH+CH3<=>CH3O+CH4                     1.000e+07    1.500   9940.25
C2H+H(+M)<=>C2H2(+M)                     2.250e+13    0.320      0.00
AR/0.70/ H2/2.00/ H2O/6.00/ HE/0.70/ CO/1.50/ CO2/2.00/ CH4/2.00/ C2H6/3.00/ 
     LOW  /  3.750e+33   -4.800   1900.10 /
     TROE/   0.646      132      1315      5566 /
C2H+O<=>CH+CO                            5.000e+13    0.000      0.00
C2H+OH<=>H+HCCO                          2.000e+13    0.000      0.00
C2H+O2<=>HCO+CO                          3.000e+13    0.000   -755.26
C2H+C2H6<=>C2H2+C2H5                     3.600e+12    0.000      0.00
C2H+CH4<=>C2H2+CH3                       9.970e+09    1.100    576.96
C2H2+H<=>C2H+H2                          1.010e+10    1.640  30302.10
C2H+H2O2<=>C2H2+HO2                      9.970e+09    1.100    576.96
HCCO+H<=>SXCH2+CO                        1.000e+14    0.000      0.00
HCCO+O<=>H+2CO                           1.000e+14    0.000      0.00
HCCO+O2<=>OH+2CO                         4.200e+10    0.000    853.25
HCCO+CH<=>C2H2+CO                        5.000e+13    0.000      0.00
HCCO+TXCH2<=>C2H3+CO                     3.000e+13    0.000      0.00
2HCCO<=>C2H2+2CO                         1.000e+13    0.000      0.00
C2H2+H(+M)<=>C2H3(+M)                    1.709e+10    1.270   2707.93
AR/0.70/ H2/2.00/ H2O/12.00/ CO/1.75/ CO2/3.60/ CH4/2.00/ C2H6/3.00/ 
     LOW  /  6.340e+31   -4.660   3781.07 /
!     FCCHECK/  0.7878         1 0.2122    -10210      0         0
     TROE/  0.2122        1    -10210        /
C2H2+O<=>TXCH2+CO                        7.395e+08    1.280   2472.04
C2H2+O<=>HCCO+H                          2.958e+09    1.280   2472.04
CHCHO+H<=>CH2CO+H                        1.000e+14    0.000      0.00
CHCHO+O2=>CO2+H+HCO                      4.800e+03    2.882  -1621.65
CHCHO+O2<=>CHOCHO+O                      1.200e+06    2.420   1606.60
CHOCHO<=>CH2O+CO                         5.500e+56  -12.600  79963.91
PLOG /     0.010 4.200e+53  -12.500  70844.88 /
PLOG /     0.049 5.100e+54  -12.600  73011.95 /
PLOG /     0.099 1.000e+55  -12.600  73876.91 /
PLOG /     0.493 4.500e+55  -12.600  75869.02 /
PLOG /     0.987 8.000e+55  -12.600  76712.95 /
PLOG /     4.935 1.100e+56  -12.200  77642.93 /
PLOG /     9.869 5.500e+56  -12.600  79963.91 /
CHOCHO=>2CO+H2                           3.400e+59  -13.300  84293.98
PLOG /     0.010 6.000e+51  -12.100  71853.97 /
PLOG /     0.049 1.400e+54  -12.500  74750.96 /
PLOG /     0.099 1.800e+55  -12.700  76136.95 /
PLOG /     0.493 1.300e+57  -13.000  78972.04 /
PLOG /     0.987 6.100e+57  -13.100  80146.99 /
PLOG /     4.935 5.800e+57  -12.900  81870.94 /
PLOG /     9.869 3.400e+59  -13.300  84293.98 /
CHOCHO<=>2HCO                            3.000e+60  -13.300  88993.07
PLOG /     0.010 1.000e+42   -9.700  73533.94 /
PLOG /     0.049 6.000e+48  -11.100  77462.00 /
PLOG /     0.099 1.700e+51  -11.600  79110.90 /
PLOG /     0.493 5.300e+55  -12.500  82773.90 /
PLOG /     0.987 1.900e+57  -12.800  84320.99 /
PLOG /     4.935 2.200e+59  -13.100  87257.89 /
PLOG /     9.869 3.000e+60  -13.300  88993.07 /
CHOCHO+OH=>HCO+CO+H2O                    6.133e+04    2.650  -4586.28
CHOCHO+O=>HCO+CO+OH                      5.940e+12    0.000   1868.07
CHOCHO+HO2=>HCO+CO+H2O2                  1.700e+13    0.000  16289.91
CHOCHO+HO2=>HOCHO+CO+OH                  3.300e-04    3.995    299.95
CHOCHO+O2=>HCO+CO+HO2                    3.010e+13    0.000  39150.10
CHOCHO+H<=>CH2O+HCO                      5.400e+13    0.000   4299.95
C2H2OH<=>HCCOH+H                         5.500e+29   -5.057  52376.91
PLOG /     0.040 4.400e+29   -6.153  51382.89 /
PLOG /     1.000 1.100e+31   -6.153  51382.89 /
PLOG /    10.000 1.500e+32   -6.168  52239.01 /
PLOG /   100.000 5.500e+29   -5.057  52376.91 /
C2H2OH+H<=>CH2CHO+H                      5.000e+13    0.000      0.00
C2H2OH+H<=>HCCOH+H2                      2.409e+13    0.000      0.00
C2H2OH+OH<=>HCCOH+H2O                    3.011e+13    0.000      0.00
C2H2OH+O<=>CHOCHO+H                      5.000e+13    0.000      0.00
C2H2OH+O2<=>CHOCHO+OH                    1.800e+12    0.000   -186.90
C2H2OH+O2<=>HOCHO+HCO                    1.278e+22   -2.871   8251.19
     DUPLICATE
C2H2OH+O2<=>HOCHO+HCO                    5.895e+15   -1.195   1190.49
     DUPLICATE
C2H2OH+O2=>HOCHO+H+CO                    1.435e+22   -2.528  20345.36
C2H2OH+CH2O<=>C2H3OH+HCO                 5.400e+03    2.810   5859.94
C2H2OH+HCO<=>C2H3OH+CO                   9.033e+13    0.000      0.00
C2H2OH+CH3<=>HCCOH+CH4                   2.050e+13    0.000      0.00
HOCHO(+M)<=>CO+H2O(+M)                   7.500e+14    0.000  68710.09

     LOW  /  4.100e+15    0.000  52979.92 /
     TROE/       0        0         0         0 /
HOCHO(+M)<=>CO2+H2(+M)                   4.500e+13    0.000  68239.96

     LOW  /  1.700e+15    0.000  51109.94 /
     TROE/       0        0         0         0 /
HOCO+HO2<=>HOCHO+O2                      4.000e+11    0.000      0.00
HOCHO+O2<=>OCHO+HO2                      3.000e+13    0.000  63000.00
HOCHO+H<=>HOCO+H2                        2.300e+02    3.272   4858.03
HOCHO+H<=>OCHO+H2                        4.200e+05    2.255  14091.06
HOCHO+O<=>HOCO+OH                        5.100e+01    3.422   4216.06
HOCHO+O<=>OCHO+OH                        1.700e+05    2.103   9880.02
HOCHO+OH<=>HOCO+H2O                      7.800e-06    5.570  -2364.96
HOCHO+OH<=>OCHO+H2O                      9.800e-05    4.910  -5066.92
HOCHO+CH3=>CH4+CO+OH                     3.900e-07    5.800   2200.05
HOCHO+HO2<=>HOCO+H2O2                    4.700e-01    3.975  16787.05
HOCHO+HO2<=>OCHO+H2O2                    3.900e+01    3.080  25206.02
CO+OH<=>HOCO                             1.100e+20   -2.780   2055.93
PLOG /     0.013 1.700e+15   -2.680    859.00 /
PLOG /     0.132 5.900e+18   -3.350    887.00 /
PLOG /     1.316 2.600e+20   -3.500   1309.00 /
PLOG /    13.158 7.100e+20   -3.320   1763.00 /
PLOG /   131.580 1.100e+20   -2.780   2056.00 /
HOCO<=>CO2+H                             1.897e+38   -8.047  34239.96
PLOG /     0.001 4.758e+18   -3.817  17676.00 /
PLOG /     0.003 2.225e+20   -4.149  19037.00 /
PLOG /     0.010 7.564e+21   -4.434  20325.00 /
PLOG /     0.030 9.107e+24   -5.189  22419.00 /
PLOG /     0.099 3.144e+29   -6.376  25233.03 /
PLOG /     0.296 1.150e+32   -7.037  26662.05 /
PLOG /     0.987 1.069e+36   -8.107  29064.05 /
PLOG /     2.961 2.438e+36   -8.153  29336.04 /
PLOG /     9.869 6.663e+35   -7.919  29217.02 /
PLOG /    29.607 1.723e+38   -8.506  31272.95 /
PLOG /    98.690 3.007e+41   -9.290  33966.06 /
PLOG /   296.070 6.767e+36   -7.832  31613.05 /
PLOG /   986.900 1.897e+38   -8.047  34239.96 /
CO+H2O2<=>HOCO+OH                        3.600e+04    2.500  28659.90
HOCO+H<=>CO2+H2                          3.100e+17   -1.347    554.97
HOCO+H<=>CO+H2O                          6.000e+15   -0.525   2125.00
HOCO+O<=>CO2+OH                          8.670e+12    0.000      0.00
HOCO+OH<=>CO2+H2O                        4.560e+12    0.000    -88.91
     DUPLICATE
HOCO+OH<=>CO2+H2O                        9.540e+06    2.000    -88.91
     DUPLICATE
HOCO+HO2<=>CO2+H2O2                      3.930e+13    0.000      0.00
HOCO+O2<=>CO2+HO2                        4.000e+09    1.000      0.00
HOCO+CH3<=>CO2+CH4                       1.360e+13    0.000      0.00
HOCO+CH3<=>CH2CO+H2O                     2.130e+13    0.000      0.00
C2H3OH(+M)<=>CH3CHO(+M)                  9.660e+23   -3.290  59987.57

     LOW  /  2.870e+43   -8.120  52198.61 /
     TROE/     0.5      863       320    100000 /
C2H3OH+O2<=>CH2CHO+HO2                   5.310e+11    0.210  39830.07
C2H3OH+O<=>CH2CHO+OH                     1.875e+06    1.900   -859.94
C2H3OH+H<=>CH2CHO+H2                     1.480e+03    3.077   7219.88
C2H3OH+OH<=>CH2CHO+H2O                   3.330e+09    1.100    540.39
C2H3OH+CH3<=>CH2CHO+CH4                  2.030e-08    5.900   1052.10
C2H3OH+CH3O2<=>CH2CHO+CH3O2H             3.400e+03    2.500   8922.08
C2H3OH+H<=>C2H2OH+H2                     2.470e+07    2.030  15200.05
C2H3OH+H<=>PC2H4OH                       3.010e+08    1.577   3669.93
C2H3OH+HO2<=>CH3CHO+HO2                  1.490e+05    1.670   6809.99
C2H3OOH<=>CH2CHO+OH                      2.220e+17   -0.420  44621.89
PLOG /     1.000 2.000e+35   -6.700  47450.05 /
PLOG /    10.000 1.120e+28   -4.150  46190.01 /
PLOG /    50.000 2.800e+26   -3.500  46340.11 /
PLOG /   100.000 2.220e+17   -0.420  44621.89 /
C2H3OOH+H<=>C2H3OO+H2                    4.300e+10    0.000   1859.94
C2H3OOH+H<=>CH2CHO+H2O                   1.200e+10    0.000   1859.94
C2H3OOH+O<=>C2H3OO+OH                    8.700e+12    0.000   4750.00
C2H3OOH+OH<=>C2H3OO+H2O                  1.100e+12    0.000   -436.90
C2H3OOH+HO2<=>C2H3OO+H2O2                4.100e+04    2.500  10206.02
C2H3OO+H<=>CH2CHO+OH                     9.600e+13    0.000      0.00
C2H3OO+O<=>CH2CHO+O2                     1.600e+13    0.000   -145.08
C2H3OO+OH<=>C2H3OH+O2                    2.000e+15   -0.600      0.00
C2H3OO+OH<=>CH2CHO+HO2                   4.000e+11    0.600      0.00
C2H3OOH+O2<=>C2H3OO+HO2                  9.000e+13    0.000  40400.10
C2H3OO+CO<=>CH2CHO+CO2                   1.600e+05    2.180  17940.01
C2H3OO+CH3<=>CH2CHO+CH3O                 5.100e+12    0.000  -1411.09
C2H3OO+CH4<=>C2H3OOH+CH3                 4.700e+04    2.500  21000.00
C2H3OO+CH3OH<=>C2H3OOH+CH2OH             4.000e+13    0.000  19400.10
C2H3OO+CH2O<=>C2H3OOH+HCO                4.100e+04    2.500  10206.02
C2H3OO+C2H6<=>C2H3OOH+C2H5               8.600e+00    3.760  17200.05
H2C2+OH<=>CH2CO+H                        2.000e+13    0.000      0.00
H2C2+H<=>C2H2+H                          1.000e+14    0.000      0.00
C2H3+H<=>H2C2+H2                         6.000e+13    0.000      0.00
CH2CO+H<=>CH3CO                          2.300e+08    1.610   2626.91
CH3CO+H<=>CH2CO+H2                       2.000e+13    0.000      0.00
CH3CO+O<=>CH2CO+OH                       2.000e+13    0.000      0.00
CH3CO+CH3<=>CH2CO+CH4                    5.000e+13    0.000      0.00
CH3CO+O2<=>CH3CO3                        3.150e+59  -15.300  14599.90
PLOG /     0.100 1.080e+95  -27.336  25141.01 /
PLOG /     0.100 1.210e+45  -11.733   5358.29 /
PLOG /     1.000 9.270e+68  -18.700  16700.00 /
PLOG /     1.000 6.180e+43  -11.000   5690.01 /
PLOG /    10.000 3.150e+59  -15.300  14600.00 /
PLOG /    10.000 2.460e+45  -11.400   6409.99 /
CH3CHO+CH3O<=>CH3CO+CH3OH                1.690e+05    2.044   2353.25
     DUPLICATE
CH3CHO+CH3O<=>CH3CO+CH3OH                9.620e+03    2.501    158.94
     DUPLICATE
CH3CHO+CH3O<=>CH2CHO+CH3OH               2.650e+01    3.452   5873.33
     DUPLICATE
CH3CHO+CH3O<=>CH2CHO+CH3OH               5.640e-06    4.930    627.63
     DUPLICATE
H+HCCOH<=>H2+HCCO                        3.000e+07    2.000   1000.00
OH+HCCOH<=>H2O+HCCO                      1.000e+07    2.000   1000.00
C2H4O1<=>CH3+HCO                         3.630e+13    0.000  57200.05
C2H4O1<=>CH3CHO                          7.407e+12    0.000  53799.95
C2H4O1+H<=>C2H3O1+H2                     8.000e+13    0.000   9679.97
C2H4O1+OH<=>C2H3O1+H2O                   1.780e+13    0.000   3609.94
C2H4O1+HO2<=>C2H3O1+H2O2                 1.130e+13    0.000  30429.97
C2H4O1+CH3<=>C2H3O1+CH4                  1.070e+12    0.000  11830.07
C2H4O1+CH3O<=>C2H3O1+CH3OH               1.200e+11    0.000   6750.00
C2H4O1+CH3O2<=>C2H3O1+CH3O2H             1.130e+13    0.000  30429.97
C2H4O1+C2H5O2<=>C2H3O1+C2H5O2H           1.130e+13    0.000  30429.97
C2H3O1+H<=>C2H4O1                        2.000e+12    0.000      0.00
CH2CHO+H<=>CH3CHO                        1.000e+14    0.000      0.00
CH3CO+H<=>CH3CHO                         1.000e+14    0.000      0.00
C2H3+O<=>C2H2+OH                         1.030e+12    0.200   -427.10
C2H2+OH<=>C2H+H2O                        2.630e+06    2.140  17060.23
C2H2+OH<=>HCCOH+H                        2.410e+06    2.000  12712.72
PLOG /     0.010 2.800e+05    2.280  12420.00 /
PLOG /     0.025 7.467e+05    2.160  12550.00 /
PLOG /     0.100 1.776e+06    2.040  12670.00 /
PLOG /     1.000 2.415e+06    2.000  12709.99 /
PLOG /    10.000 3.210e+06    1.970  12809.99 /
PLOG /   100.000 7.347e+06    1.890  13600.00 /
C2H2+OH<=>CH2CO+H                        1.578e+03    2.560   -844.41
PLOG /     0.010 1.578e+03    2.560   -844.50 /
PLOG /     0.025 1.518e+04    2.280   -292.10 /